<<<<<<< HEAD
  Page 1                                    Fri Dec 19 01:51:19 2025

  ******************************************************************
  *                           E P A N E T                          *
  *                   Hydraulic and Water Quality                  *
  *                   Analysis for Pipe Networks                   *
  *                         Version 2.2                            *
  ******************************************************************
  
  Analysis begun Fri Dec 19 01:51:19 2025
=======
>>>>>>> 3e25920b760dda240726eabfff9bb984f5380da9
