  Page 1                                    Wed Dec 17 22:31:10 2025

  ******************************************************************
  *                           E P A N E T                          *
  *                   Hydraulic and Water Quality                  *
  *                   Analysis for Pipe Networks                   *
  *                         Version 2.2                            *
  ******************************************************************
  
  Analysis begun Wed Dec 17 22:31:10 2025

  WARNING: Pump P78 closed because cannot deliver head at 49:19:32 hrs.
   
  WARNING: Pump P79 closed because cannot deliver head at 49:20:00 hrs.
   
  WARNING: Pump P79 closed because cannot deliver head at 49:30:00 hrs.
   
  WARNING: Pump P78 closed because cannot deliver head at 74:20:00 hrs.
  WARNING: Pump P79 closed because cannot deliver head at 74:20:00 hrs.
   
  WARNING: Pump P79 closed because cannot deliver head at 74:30:00 hrs.
   
  WARNING: Pump P79 closed because cannot deliver head at 49:03:16 hrs.
   
  WARNING: Pump P78 closed because cannot deliver head at 122:40:41 hrs.
   