  Page 1                                    Sat Dec 20 15:01:27 2025

  ******************************************************************
  *                           E P A N E T                          *
  *                   Hydraulic and Water Quality                  *
  *                   Analysis for Pipe Networks                   *
  *                         Version 2.2                            *
  ******************************************************************
  
  Analysis begun Sat Dec 20 15:01:27 2025

  WARNING: Pump P78 closed because cannot deliver head at 97:54:19 hrs.
   
  WARNING: Pump P78 closed because cannot deliver head at 98:10:00 hrs.
  WARNING: Pump P79 closed because cannot deliver head at 98:10:00 hrs.
   
  WARNING: Pump P79 closed because cannot deliver head at 98:20:00 hrs.
   
  WARNING: Pump P79 closed because cannot deliver head at 98:30:00 hrs.
   
  WARNING: Pump P78 closed because cannot deliver head at 123:45:41 hrs.
   
  WARNING: Pump P79 closed because cannot deliver head at 123:50:00 hrs.
   