  Page 1                                    Sat Dec 13 20:38:42 2025

  ******************************************************************
  *                           E P A N E T                          *
  *                   Hydraulic and Water Quality                  *
  *                   Analysis for Pipe Networks                   *
  *                         Version 2.2                            *
  ******************************************************************
  
  Analysis begun Sat Dec 13 20:38:42 2025

  WARNING: Pump P79 closed because cannot deliver head at 98:16:16 hrs.
   
  WARNING: Pump P78 closed because cannot deliver head at 98:20:00 hrs.
   
  WARNING: Pump P79 closed because cannot deliver head at 98:30:00 hrs.
   
  WARNING: Pump P79 closed because cannot deliver head at 98:40:00 hrs.
   
  WARNING: Pump P78 closed because cannot deliver head at 98:50:00 hrs.
  WARNING: Pump P79 closed because cannot deliver head at 98:50:00 hrs.
   
  WARNING: Pump P78 closed because cannot deliver head at 49:02:37 hrs.
   
  WARNING: Pump P78 closed because cannot deliver head at 49:20:00 hrs.
   
  WARNING: Pump P78 closed because cannot deliver head at 49:40:00 hrs.
  WARNING: Pump P79 closed because cannot deliver head at 49:40:00 hrs.
   
  WARNING: Pump P78 closed because cannot deliver head at 49:50:00 hrs.
   
  WARNING: Pump P79 closed because cannot deliver head at 74:02:33 hrs.
   
  WARNING: Pump P78 closed because cannot deliver head at 74:30:00 hrs.
  WARNING: Pump P79 closed because cannot deliver head at 74:30:00 hrs.
   
  WARNING: Pump P78 closed because cannot deliver head at 74:40:00 hrs.
  WARNING: Pump P79 closed because cannot deliver head at 74:40:00 hrs.
   
  WARNING: Pump P79 closed because cannot deliver head at 74:50:00 hrs.
   
  WARNING: Maximum trials exceeded at 124:30:00 hrs. System may be unstable.
   
  WARNING: Pump P78 closed because cannot deliver head at 49:30:00 hrs.
   
  WARNING: Pump P78 closed because cannot deliver head at 49:40:00 hrs.
   
  WARNING: Pump P78 closed because cannot deliver head at 51:01:33 hrs.
   
  WARNING: Pump P78 closed because cannot deliver head at 51:20:00 hrs.
  WARNING: Pump P79 closed because cannot deliver head at 51:20:00 hrs.
   
  WARNING: Pump P78 closed because cannot deliver head at 51:50:00 hrs.
   
  WARNING: System unbalanced at 70:10:26 hrs. EXECUTION HALTED.
   
  WARNING: Pump P79 closed because cannot deliver head at 75:10:00 hrs.
   
  WARNING: Pump P79 closed because cannot deliver head at 75:20:00 hrs.
   
  WARNING: Pump P78 closed because cannot deliver head at 75:30:00 hrs.
  WARNING: Pump P79 closed because cannot deliver head at 75:30:00 hrs.
   
  WARNING: Pump P78 closed because cannot deliver head at 75:40:00 hrs.
   
  WARNING: Pump P78 closed because cannot deliver head at 75:50:00 hrs.
   
  WARNING: Pump P78 closed because cannot deliver head at 122:00:09 hrs.
   
  WARNING: Pump P78 closed because cannot deliver head at 122:10:00 hrs.
   
  WARNING: Pump P79 closed because cannot deliver head at 122:20:00 hrs.
   
  WARNING: Pump P79 closed because cannot deliver head at 122:40:00 hrs.
   