  Page 1                                    Tue Dec 23 18:43:33 2025

  ******************************************************************
  *                           E P A N E T                          *
  *                   Hydraulic and Water Quality                  *
  *                   Analysis for Pipe Networks                   *
  *                         Version 2.2                            *
  ******************************************************************
  
  Analysis begun Tue Dec 23 18:43:33 2025

  WARNING: Pump P78 closed because cannot deliver head at 98:23:24 hrs.
   
  WARNING: Pump P78 closed because cannot deliver head at 98:30:00 hrs.
  WARNING: Pump P79 closed because cannot deliver head at 98:30:00 hrs.
   
  WARNING: Pump P78 closed because cannot deliver head at 98:40:00 hrs.
   
  WARNING: Pump P79 closed because cannot deliver head at 75:20:00 hrs.
   
  WARNING: Pump P78 closed because cannot deliver head at 122:50:00 hrs.
  WARNING: Pump P79 closed because cannot deliver head at 122:50:00 hrs.
   
  WARNING: System unbalanced at 123:20:01 hrs. EXECUTION HALTED.
   