  Page 1                                    Thu Dec 11 11:17:24 2025

  ******************************************************************
  *                           E P A N E T                          *
  *                   Hydraulic and Water Quality                  *
  *                   Analysis for Pipe Networks                   *
  *                         Version 2.2                            *
  ******************************************************************
  
  Analysis begun Thu Dec 11 11:17:24 2025

  WARNING: Pump P79 closed because cannot deliver head at 145:00:00 hrs.
   
  WARNING: Pump P79 closed because cannot deliver head at 145:10:00 hrs.
   
  WARNING: Pump P79 closed because cannot deliver head at 145:20:00 hrs.
   
  WARNING: Pump P79 closed because cannot deliver head at 145:30:00 hrs.
   
  WARNING: Pump P79 closed because cannot deliver head at 145:40:00 hrs.
   
  WARNING: Pump P79 closed because cannot deliver head at 145:50:00 hrs.
   
  WARNING: Pump P79 closed because cannot deliver head at 147:00:00 hrs.
   
  WARNING: Pump P79 closed because cannot deliver head at 147:10:00 hrs.
   
  WARNING: Pump P79 closed because cannot deliver head at 147:20:00 hrs.
   
  WARNING: Pump P79 closed because cannot deliver head at 147:30:00 hrs.
   
  WARNING: Pump P79 closed because cannot deliver head at 147:40:00 hrs.
   
  WARNING: Pump P79 closed because cannot deliver head at 147:50:00 hrs.
   
  WARNING: Pump P78 closed because cannot deliver head at 98:37:45 hrs.
   
  WARNING: Pump P78 closed because cannot deliver head at 98:40:00 hrs.
   
  WARNING: Pump P78 closed because cannot deliver head at 98:50:00 hrs.
   
  WARNING: Pump P78 closed because cannot deliver head at 74:00:00 hrs.
  WARNING: Pump P79 closed because cannot deliver head at 74:00:00 hrs.
   
  WARNING: Pump P78 closed because cannot deliver head at 74:10:00 hrs.
  WARNING: Pump P79 closed because cannot deliver head at 74:10:00 hrs.
   
  WARNING: Pump P78 closed because cannot deliver head at 74:20:00 hrs.
  WARNING: Pump P79 closed because cannot deliver head at 74:20:00 hrs.
   
  WARNING: Pump P78 closed because cannot deliver head at 74:30:00 hrs.
  WARNING: Pump P79 closed because cannot deliver head at 74:30:00 hrs.
   
  WARNING: Pump P78 closed because cannot deliver head at 74:40:00 hrs.
  WARNING: Pump P79 closed because cannot deliver head at 74:40:00 hrs.
   
  WARNING: Pump P78 closed because cannot deliver head at 74:50:00 hrs.
  WARNING: Pump P79 closed because cannot deliver head at 74:50:00 hrs.
   
  WARNING: Pump P78 closed because cannot deliver head at 97:00:00 hrs.
  WARNING: Pump P79 closed because cannot deliver head at 97:00:00 hrs.
   
  WARNING: Pump P78 closed because cannot deliver head at 97:10:00 hrs.
  WARNING: Pump P79 closed because cannot deliver head at 97:10:00 hrs.
   
  WARNING: Pump P78 closed because cannot deliver head at 97:20:00 hrs.
  WARNING: Pump P79 closed because cannot deliver head at 97:20:00 hrs.
   
  WARNING: Pump P78 closed because cannot deliver head at 97:30:00 hrs.
  WARNING: Pump P79 closed because cannot deliver head at 97:30:00 hrs.
   
  WARNING: Pump P78 closed because cannot deliver head at 97:40:00 hrs.
  WARNING: Pump P79 closed because cannot deliver head at 97:40:00 hrs.
   
  WARNING: Pump P78 closed because cannot deliver head at 97:50:00 hrs.
  WARNING: Pump P79 closed because cannot deliver head at 97:50:00 hrs.
   
  WARNING: Pump P78 closed because cannot deliver head at 146:00:00 hrs.
   
  WARNING: Pump P78 closed because cannot deliver head at 146:10:00 hrs.
   
  WARNING: Pump P78 closed because cannot deliver head at 146:20:00 hrs.
   
  WARNING: Pump P78 closed because cannot deliver head at 146:30:00 hrs.
   
  WARNING: Pump P78 closed because cannot deliver head at 146:40:00 hrs.
   
  WARNING: Pump P78 closed because cannot deliver head at 146:50:00 hrs.
   
  WARNING: Pump P79 closed because cannot deliver head at 98:00:00 hrs.
   
  WARNING: Pump P79 closed because cannot deliver head at 98:10:00 hrs.
   
  WARNING: Pump P79 closed because cannot deliver head at 98:20:00 hrs.
   
  WARNING: Pump P79 closed because cannot deliver head at 98:30:00 hrs.
   
  WARNING: Pump P79 closed because cannot deliver head at 98:40:00 hrs.
   
  WARNING: Pump P79 closed because cannot deliver head at 98:50:00 hrs.
   
  WARNING: Pump P78 closed because cannot deliver head at 122:03:41 hrs.
  WARNING: Pump P79 closed because cannot deliver head at 122:03:41 hrs.
   
  WARNING: Pump P78 closed because cannot deliver head at 122:10:00 hrs.
  WARNING: Pump P79 closed because cannot deliver head at 122:10:00 hrs.
   
  WARNING: Pump P78 closed because cannot deliver head at 122:20:00 hrs.
  WARNING: Pump P79 closed because cannot deliver head at 122:20:00 hrs.
   
  WARNING: Pump P78 closed because cannot deliver head at 122:30:00 hrs.
  WARNING: Pump P79 closed because cannot deliver head at 122:30:00 hrs.
   
  WARNING: Pump P78 closed because cannot deliver head at 122:40:00 hrs.
  WARNING: Pump P79 closed because cannot deliver head at 122:40:00 hrs.
   
  WARNING: Pump P78 closed because cannot deliver head at 122:50:00 hrs.
  WARNING: Pump P79 closed because cannot deliver head at 122:50:00 hrs.
   
  WARNING: Pump P78 closed because cannot deliver head at 98:07:31 hrs.
  WARNING: Pump P79 closed because cannot deliver head at 98:07:31 hrs.
   
  WARNING: Pump P78 closed because cannot deliver head at 98:10:00 hrs.
  WARNING: Pump P79 closed because cannot deliver head at 98:10:00 hrs.
   
  WARNING: Pump P78 closed because cannot deliver head at 98:20:00 hrs.
  WARNING: Pump P79 closed because cannot deliver head at 98:20:00 hrs.
   
  WARNING: Pump P78 closed because cannot deliver head at 98:30:00 hrs.
  WARNING: Pump P79 closed because cannot deliver head at 98:30:00 hrs.
   
  WARNING: Pump P78 closed because cannot deliver head at 98:40:00 hrs.
  WARNING: Pump P79 closed because cannot deliver head at 98:40:00 hrs.
   
  WARNING: Pump P78 closed because cannot deliver head at 98:50:00 hrs.
  WARNING: Pump P79 closed because cannot deliver head at 98:50:00 hrs.
   
  WARNING: Pump P78 closed because cannot deliver head at 122:01:27 hrs.
  WARNING: Pump P79 closed because cannot deliver head at 122:01:27 hrs.
   
  WARNING: Pump P78 closed because cannot deliver head at 122:10:00 hrs.
  WARNING: Pump P79 closed because cannot deliver head at 122:10:00 hrs.
   
  WARNING: Pump P78 closed because cannot deliver head at 122:20:00 hrs.
  WARNING: Pump P79 closed because cannot deliver head at 122:20:00 hrs.
   
  WARNING: Pump P78 closed because cannot deliver head at 122:30:00 hrs.
  WARNING: Pump P79 closed because cannot deliver head at 122:30:00 hrs.
   
  WARNING: Pump P78 closed because cannot deliver head at 122:40:00 hrs.
  WARNING: Pump P79 closed because cannot deliver head at 122:40:00 hrs.
   
  WARNING: Pump P78 closed because cannot deliver head at 122:50:00 hrs.
  WARNING: Pump P79 closed because cannot deliver head at 122:50:00 hrs.
   
  WARNING: Pump P78 closed because cannot deliver head at 49:00:00 hrs.
  WARNING: Pump P79 closed because cannot deliver head at 49:00:00 hrs.
   
  WARNING: Pump P78 closed because cannot deliver head at 49:10:00 hrs.
  WARNING: Pump P79 closed because cannot deliver head at 49:10:00 hrs.
   
  WARNING: Pump P78 closed because cannot deliver head at 49:20:00 hrs.
  WARNING: Pump P79 closed because cannot deliver head at 49:20:00 hrs.
   
  WARNING: Pump P78 closed because cannot deliver head at 49:30:00 hrs.
  WARNING: Pump P79 closed because cannot deliver head at 49:30:00 hrs.
   
  WARNING: Pump P78 closed because cannot deliver head at 49:40:00 hrs.
  WARNING: Pump P79 closed because cannot deliver head at 49:40:00 hrs.
   
  WARNING: Pump P78 closed because cannot deliver head at 49:50:00 hrs.
  WARNING: Pump P79 closed because cannot deliver head at 49:50:00 hrs.
   
  WARNING: Pump P79 closed because cannot deliver head at 25:00:00 hrs.
   
  WARNING: Pump P79 closed because cannot deliver head at 25:10:00 hrs.
   
  WARNING: Pump P79 closed because cannot deliver head at 25:20:00 hrs.
   
  WARNING: P