  Page 1                                    Thu Dec 11 11:17:24 2025

  ******************************************************************
  *                           E P A N E T                          *
  *                   Hydraulic and Water Quality                  *
  *                   Analysis for Pipe Networks                   *
  *                         Version 2.2                            *
  ******************************************************************
  
  Analysis begun Thu Dec 11 11:17:24 2025

  WARNING: Pump P78 closed because cannot deliver head at 26:00:00 hrs.
  WARNING: Pump P79 closed because cannot deliver head at 26:00:00 hrs.
   
  WARNING: Pump P78 closed because cannot deliver head at 26:10:00 hrs.
  WARNING: Pump P79 closed because cannot deliver head at 26:10:00 hrs.
   
  WARNING: Pump P78 closed because cannot deliver head at 26:20:00 hrs.
  WARNING: Pump P79 closed because cannot deliver head at 26:20:00 hrs.
   
  WARNING: Pump P78 closed because cannot deliver head at 26:30:00 hrs.
  WARNING: Pump P79 closed because cannot deliver head at 26:30:00 hrs.
   
  WARNING: Pump P78 closed because cannot deliver head at 26:40:00 hrs.
  WARNING: Pump P79 closed because cannot deliver head at 26:40:00 hrs.
   
  WARNING: Pump P78 closed because cannot deliver head at 26:50:00 hrs.
  WARNING: Pump P79 closed because cannot deliver head at 26:50:00 hrs.
   
  WARNING: Pump P79 closed because cannot deliver head at 145:00:00 hrs.
   
  WARNING: Pump P79 closed because cannot deliver head at 145:10:00 hrs.
   
  WARNING: Pump P79 closed because cannot deliver head at 145:20:00 hrs.
   
  WARNING: Pump P79 closed because cannot deliver head at 145:30:00 hrs.
   
  WARNING: Pump P79 closed because cannot deliver head at 145:40:00 hrs.
   
  WARNING: Pump P79 closed because cannot deliver head at 145:50:00 hrs.
   
  WARNING: Pump P78 closed because cannot deliver head at 98:27:12 hrs.
  WARNING: Pump P79 closed because cannot deliver head at 98:27:12 hrs.
   
  WARNING: Pump P78 closed because cannot deliver head at 98:30:00 hrs.
  WARNING: Pump P79 closed because cannot deliver head at 98:30:00 hrs.
   
  WARNING: Pump P78 closed because cannot deliver head at 98:40:00 hrs.
  WARNING: Pump P79 closed because cannot deliver head at 98:40:00 hrs.
   
  WARNING: Pump P78 closed because cannot deliver head at 98:50:00 hrs.
  WARNING: Pump P79 closed because cannot deliver head at 98:50:00 hrs.
   
  WARNING: Pump P78 closed because cannot deliver head at 74:11:18 hrs.
  WARNING: Pump P79 closed because cannot deliver head at 74:11:18 hrs.
   
  WARNING: Pump P78 closed because cannot deliver head at 74:20:00 hrs.
  WARNING: Pump P79 closed because cannot deliver head at 74:20:00 hrs.
   
  WARNING: Pump P78 closed because cannot deliver head at 74:30:00 hrs.
  WARNING: Pump P79 closed because cannot deliver head at 74:30:00 hrs.
   
  WARNING: Pump P78 closed because cannot deliver head at 74:40:00 hrs.
  WARNING: Pump P79 closed because cannot deliver head at 74:40:00 hrs.
   
  WARNING: Pump P78 closed because cannot deliver head at 74:50:00 hrs.
  WARNING: Pump P79 closed because cannot deliver head at 74:50:00 hrs.
   
  WARNING: Pump P78 closed because cannot deliver head at 98:00:00 hrs.
  WARNING: Pump P79 closed because cannot deliver head at 98:00:00 hrs.
   
  WARNING: Pump P78 closed because cannot deliver head at 98:10:00 hrs.
  WARNING: Pump P79 closed because cannot deliver head at 98:10:00 hrs.
   
  WARNING: Pump P78 closed because cannot deliver head at 98:20:00 hrs.
  WARNING: Pump P79 closed because cannot deliver head at 98:20:00 hrs.
   
  WARNING: Pump P78 closed because cannot deliver head at 98:30:00 hrs.
  WARNING: Pump P79 closed because cannot deliver head at 98:30:00 hrs.
   
  WARNING: Pump P78 closed because cannot deliver head at 98:40:00 hrs.
  WARNING: Pump P79 closed because cannot deliver head at 98:40:00 hrs.
   
  WARNING: Pump P78 closed because cannot deliver head at 98:50:00 hrs.
  WARNING: Pump P79 closed because cannot deliver head at 98:50:00 hrs.
   
  WARNING: Pump P78 closed because cannot deliver head at 146:00:00 hrs.
   
  WARNING: Pump P78 closed because cannot deliver head at 146:10:00 hrs.
   
  WARNING: Pump P78 closed because cannot deliver head at 146:20:00 hrs.
   
  WARNING: Pump P78 closed because cannot deliver head at 146:30:00 hrs.
   
  WARNING: Pump P78 closed because cannot deliver head at 146:40:00 hrs.
   
  WARNING: Pump P78 closed because cannot deliver head at 146:50:00 hrs.
   
  WARNING: Pump P78 closed because cannot deliver head at 73:13:26 hrs.
  WARNING: Pump P79 closed because cannot deliver head at 73:13:26 hrs.
   
  WARNING: Pump P78 closed because cannot deliver head at 73:20:00 hrs.
  WARNING: Pump P79 closed because cannot deliver head at 73:20:00 hrs.
   
  WARNING: Pump P78 closed because cannot deliver head at 73:30:00 hrs.
  WARNING: Pump P79 closed because cannot deliver head at 73:30:00 hrs.
   
  WARNING: Pump P78 closed because cannot deliver head at 73:40:00 hrs.
  WARNING: Pump P79 closed because cannot deliver head at 73:40:00 hrs.
   
  WARNING: Pump P78 closed because cannot deliver head at 73:50:00 hrs.
  WARNING: Pump P79 closed because cannot deliver head at 73:50:00 hrs.
   
  WARNING: Pump P78 closed because cannot deliver head at 27:05:28 hrs.
  WARNING: Pump P79 closed because cannot deliver head at 27:05:28 hrs.
   
  WARNING: Pump P78 closed because cannot deliver head at 27:10:00 hrs.
  WARNING: Pump P79 closed because cannot deliver head at 27:10:00 hrs.
   
  WARNING: Pump P78 closed because cannot deliver head at 27:20:00 hrs.
  WARNING: Pump P79 closed because cannot deliver head at 27:20:00 hrs.
   
  WARNING: Pump P78 closed because cannot deliver head at 27:30:00 hrs.
  WARNING: Pump P79 closed because cannot deliver head at 27:30:00 hrs.
   
  WARNING: Pump P78 closed because cannot deliver head at 27:40:00 hrs.
  WARNING: Pump P79 closed because cannot deliver head at 27:40:00 hrs.
   
  WARNING: Pump P78 closed because cannot deliver head at 27:50:00 hrs.
  WARNING: Pump P79 closed because cannot deliver head at 27:50:00 hrs.
   
  WARNING: Pump P78 closed because cannot deliver head at 122:02:54 hrs.
  WARNING: Pump P79 closed because cannot deliver head at 122:02:54 hrs.
   
  WARNING: Pump P78 closed because cannot deliver head at 122:10:00 hrs.
  WARNING: Pump P79 closed because cannot deliver head at 122:10:00 hrs.
   
  WARNING: Pump P78 closed because cannot deliver head at 122:20:00 hrs.
  WARNING: Pump P79 closed because cannot deliver head at 122:20:00 hrs.
   
  WARNING: Pump P78 closed because cannot deliver head at 122:30:00 hrs.
  WARNING: Pump P79 closed because cannot deliver head at 122:30:00 hrs.
   
  WARNING: Pump P78 closed because cannot deliver head at 122:40:00 hrs.
  WARNING: Pump P79 closed because cannot deliver head at 122:40:00 hrs.
   
  WARNING: Pump P78 closed because cannot deliver head at 122:50:00 hrs.
  WARNING: Pump P79 closed because cannot deliver head at 122:50:00 hrs.
   
  WARNING: Pump P78 closed because cannot deliver head at 26:46:49 hrs.
   
  WARNING: Pump P78 closed because cannot deliver head at 26:50:00 hrs.
   
  WARNING: Pump P78 closed because cannot deliver head at 74:07:33 hrs.
   
  WARNING: Pump P78 closed because cannot deliver head at 74:10:00 hrs.
   
  WARNING: Pump P78 closed because cannot deliver head at 74:20:00 hrs.
   
  WARNING: Pump P78 closed because cannot deliver head at 74:30:00 hrs.
   
  WARNING: Pump P78 closed because cannot deliver head at 74:40:00 hrs.
   
  WARNING: Pump P78 closed because cannot deliver head at 74:50:00 hrs.
   
  WARNING: Pump P78 closed because cannot deliver head at 146:31:59 hrs.
   
  WARNING: Pump P78 closed because cannot deliver head at 146:40:00 hrs.
   
  WARNING: Pump P78 closed because cannot deliver head at 146:50:00 hrs.
   
  WARNING: Pump P79 closed because cannot deliver head at 98:51:47 hrs.
   
  WARNING: Pump P79 closed because cannot deliver head at 98:46:37 hrs.
   
  WARNING: Pump P79 closed because cannot deliver head at 98:50:00 hrs.
   
  WARNING: Pump P78 closed because cannot deliver head at 74:30:56 hrs.
   
  WARNING: Pump P78 closed because cannot deliver head at 74:40:00 hrs.
   
  WARNING: Pump P78 closed because cannot deliver head at 74:50:00 hrs.
   sed because cannot deliver head at 97:30:00 hrs.
   
  WARNING: Pump P78 closed because cannot deliver head at 97:40:00 hrs.
   
  WARNING: Pump P78 closed because cannot deliver head at 97:50:00 hrs.
   
  WARNING: Pump P78 closed because cannot deliver head at 98:00:00 hrs.
   
  WARNING: Pump P78 closed because cannot deliver head at 98:10:00 hrs.
   
  WARNING: Pump P78 closed because cannot deliver head at 98:20:00 hrs.
   
  WARNING: Pump P78 closed because cannot deliver head at 98:30:00 hrs.
   
  WARNING: Pump P78 closed because cannot deliver head at 98:40:00 hrs.
   
  WARNING: Pump P78 closed because cannot deliver head at 98:50:00 hrs.
   
  WARNING: Pump P78 closed because cannot deliver head at 2:19:09 hrs.
   
  WARNING: Pump P78 closed because cannot deliver head at 2:20:00 hrs.
   
  WARNING: Pump P78 closed because cannot deliver head at 2:30:00 hrs.
   
  WARNING: Pump P78 closed because cannot deliver head at 2:40:00 hrs.
   
  WARNING: Pump P78 closed because cannot deliver head at 2:50:00 hrs.
   
  WARNING: Pump P78 closed because cannot deliver head at 50:14:02 hrs.
   
  WARNING: Pump P78 closed because cannot deliver head at 50:20:00 hrs.
   
  WARNING: Pump P78 closed because cannot deliver head at 50:30:00 hrs.
   
  WARNING: Pump P78 closed because cannot deliver head at 50:40:00 hrs.
   
  WARNING: Pump P78 closed because cannot deliver head at 50:50:00 hrs.
   
  WARNING: Pump P78 closed because cannot deliver head at 2:00:00 hrs.
   
  WARNING: Pump P78 closed because cannot deliver head at 2:10:00 hrs.
   
  WARNING: Pump P78 closed because cannot deliver head at 2:20:00 hrs.
   
  WARNING: Pump P78 closed because cannot deliver head at 2:30:00 hrs.
   
  WARNING: Pump P78 closed because cannot deliver head at 2:40:00 hrs.
   
  WARNING: Pump P78 closed because cannot deliver head at 2:50:00 hrs.
   
  WARNING: Pump P78 closed because cannot deliver head at 46:00:00 hrs.
   
  WARNING: Pump P78 closed because cannot deliver head at 46:10:00 hrs.
   
  WARNING: Pump P78 closed because cannot deliver head at 46:20:00 hrs.
   
  WARNING: Pump P78 closed because cannot deliver head at 46:30:00 hrs.
   
  WARNING: Pump P78 closed because cannot deliver head at 46:40:00 hrs.
   
  WARNING: Pump P78 closed because cannot deliver head at 46:50:00 hrs.
   
  WARNING: Pump P78 closed because cannot deliver head at 75:00:00 hrs.
   
  WARNING: Pump P78 closed because cannot deliver head at 75:10:00 hrs.
   
  WARNING: Pump P78 closed because cannot deliver head at 75:20:00 hrs.
   
  WARNING: Pump P78 closed because cannot deliver head at 75:30:00 hrs.
   
  WARNING: Pump P78 closed because cannot deliver head at 75:40:00 hrs.
   
  WARNING: Pump P78 closed because cannot deliver head at 75:50:00 hrs.
   
  WARNING: Pump P78 closed because cannot deliver head at 50:00:00 hrs.
   
  WARNING: Pump P78 closed because cannot deliver head at 50:10:00 hrs.
   
  WARNING: Pump P78 closed because cannot deliver head at 50:20:00 hrs.
   
  WARNING: Pump P78 closed because cannot deliver head at 50:30:00 hrs.
   
  WARNING: Pump P78 closed because cannot deliver head at 50:40:00 hrs.
   
  WARNING: Pump P78 closed because cannot deliver head at 50:50:00 hrs.
   
  WARNING: Pump P78 closed because cannot deliver head at 98:00:00 hrs.
   
  WARNING: Pump P78 closed because cannot deliver head at 98:10:00 hrs.
   
  WARNING: Pump P78 closed because cannot deliver head at 98:20:00 hrs.
   
  WARNING: Pump P78 closed because cannot deliver head at 98:30:00 hrs.
   
  WARNING: Pump P78 closed because cannot deliver head at 98:40:00 hrs.
   
  WARNING: Pump P78 closed because cannot deliver head at 98:50:00 hrs.
   
  WARNING: Pump P78 closed because cannot deliver head at 75:00:00 hrs.
   
  WARNING: Pump P78 closed because cannot deliver head at 75:10:00 hrs.
   
  WARNING: Pump P78 closed because cannot deliver head at 75:20:00 hrs.
   
  WARNING: Pump P78 closed because cannot deliver head at 75:30:00 hrs.
   
  WARNING: Pump P78 closed because cannot deliver head at 75:40:00 hrs.
   
  WARNING: Pump P78 closed because cannot deliver head at 75:50:00 hrs.
   
  WARNING: Pump P78 closed because cannot deliver head at 146:00:00 hrs.
   
  WARNING: Pump P78 closed because cannot deliver head at 146:10:00 hrs.
   
  WARNING: Pump P78 closed because cannot deliver head at 146:20:00 hrs.
   
  WARNING: Pump P78 closed because cannot deliver head at 146:30:00 hrs.
   
  WARNING: Pump P78 closed because cannot deliver head at 146:40:00 hrs.
   
  WARNING: Pump P78 closed because cannot deliver head at 146:50:00 hrs.
   
  WARNING: Pump P78 closed because cannot deliver head at 146:00:00 hrs.
   
  WARNING: Pump P78 closed because cannot deliver head at 146:10:00 hrs.
   
  WARNING: Pump P78 closed because cannot deliver head at 146:20:00 hrs.
   
  WARNING: Pump P78 closed because cannot deliver head at 146:30:00 hrs.
   
  WARNING: Pump P78 closed because cannot deliver head at 146:40:00 hrs.
   
  WARNING: Pump P78 closed because cannot deliver head at 146:50:00 hrs.
   
  WARNING: Pump P78 closed because cannot deliver head at 2:00:00 hrs.
   
  WARNING: Pump P78 closed because cannot deliver head at 2:10:00 hrs.
   
  WARNING: Pump P78 closed because cannot deliver head at 2:20:00 hrs.
   
  WARNING: Pump P78 closed because cannot deliver head at 2:30:00 hrs.
   
  WARNING: Pump P78 closed because cannot deliver head at 2:40:00 hrs.
   
  WARNING: Pump P78 closed because cannot deliver head at 2:50:00 hrs.
   use cannot deliver head at 121:50:00 hrs.
   
  WARNING: Pump P78 closed because cannot deliver head at 25:00:00 hrs.
   
  WARNING: Pump P78 closed because cannot deliver head at 25:10:00 hrs.
   
  WARNING: Pump P78 closed because cannot deliver head at 25:20:00 hrs.
   
  WARNING: Pump P78 closed because cannot deliver head at 25:30:00 hrs.
   
  WARNING: Pump P78 closed because cannot deliver head at 25:40:00 hrs.
   
  WARNING: Pump P78 closed because cannot deliver head at 25:50:00 hrs.
   
  WARNING: Pump P78 closed because cannot deliver head at 99:00:00 hrs.
   
  WARNING: Pump P78 closed because cannot deliver head at 99:10:00 hrs.
   
  WARNING: Pump P78 closed because cannot deliver head at 99:20:00 hrs.
   
  WARNING: Pump P78 closed because cannot deliver head at 99:30:00 hrs.
   
  WARNING: Pump P78 closed because cannot deliver head at 99:40:00 hrs.
   
  WARNING: Pump P78 closed because cannot deliver head at 99:50:00 hrs.
   
  WARNING: Pump P78 closed because cannot deliver head at 146:00:00 hrs.
   
  WARNING: Pump P78 closed because cannot deliver head at 146:10:00 hrs.
   
  WARNING: Pump P78 closed because cannot deliver head at 146:20:00 hrs.
   
  WARNING: Pump P78 closed because cannot deliver head at 146:30:00 hrs.
   
  WARNING: Pump P78 closed because cannot deliver head at 146:40:00 hrs.
   
  WARNING: Pump P78 closed because cannot deliver head at 146:50:00 hrs.
   
  WARNING: Pump P78 closed because cannot deliver head at 73:00:00 hrs.
   
  WARNING: Pump P78 closed because cannot deliver head at 73:10:00 hrs.
   
  WARNING: Pump P78 closed because cannot deliver head at 73:20:00 hrs.
   
  WARNING: Pump P78 closed because cannot deliver head at 73:30:00 hrs.
   
  WARNING: Pump P78 closed because cannot deliver head at 73:40:00 hrs.
   
  WARNING: Pump P78 closed because cannot deliver head at 73:50:00 hrs.
   
  WARNING: Pump P78 closed because cannot deliver head at 49:00:00 hrs.
   
  WARNING: Pump P78 closed because cannot deliver head at 49:10:00 hrs.
   
  WARNING: Pump P78 closed because cannot deliver head at 49:20:00 hrs.
   
  WARNING: Pump P78 closed because cannot deliver head at 49:30:00 hrs.
   
  WARNING: Pump P78 closed because cannot deliver head at 49:40:00 hrs.
   
  WARNING: Pump P78 closed because cannot deliver head at 49:50:00 hrs.
   
  WARNING: Pump P78 closed because cannot deliver head at 74:00:00 hrs.
   
  WARNING: Pump P78 closed because cannot deliver head at 74:10:00 hrs.
   
  WARNING: Pump P78 closed because cannot deliver head at 74:20:00 hrs.
   
  WARNING: Pump P78 closed because cannot deliver head at 74:30:00 hrs.
   
  WARNING: Pump P78 closed because cannot deliver head at 74:40:00 hrs.
   
  WARNING: Pump P78 closed because cannot deliver head at 74:50:00 hrs.
   
  WARNING: Pump P78 closed because cannot deliver head at 25:06:16 hrs.
  WARNING: Pump P79 closed because cannot deliver head at 25:06:16 hrs.
   
  WARNING: Pump P78 closed because cannot deliver head at 25:10:00 hrs.
  WARNING: Pump P79 closed because cannot deliver head at 25:10:00 hrs.
   
  WARNING: Pump P78 closed because cannot deliver head at 25:20:00 hrs.
  WARNING: Pump P79 closed because cannot deliver head at 25:20:00 hrs.
   
  WARNING: Pump P78 closed because cannot deliver head at 25:30:00 hrs.
  WARNING: Pump P79 closed because cannot deliver head at 25:30:00 hrs.
   
  WARNING: Pump P78 closed because cannot deliver head at 25:40:00 hrs.
  WARNING: Pump P79 closed because cannot deliver head at 25:40:00 hrs.
   
  WARNING: Pump P78 closed because cannot deliver head at 25:50:00 hrs.
  WARNING: Pump P79 closed because cannot deliver head at 25:50:00 hrs.
   
  WARNING: Pump P78 closed because cannot deliver head at 26:00:00 hrs.
  WARNING: Pump P79 closed because cannot deliver head at 26:00:00 hrs.
   
  WARNING: Pump P78 closed because cannot deliver head at 26:10:00 hrs.
  WARNING: Pump P79 closed because cannot deliver head at 26:10:00 hrs.
   
  WARNING: Pump P78 closed because cannot deliver head at 26:20:00 hrs.
  WARNING: Pump P79 closed because cannot deliver head at 26:20:00 hrs.
   
  WARNING: Pump P78 closed because cannot deliver head at 26:30:00 hrs.
  WARNING: Pump P79 closed because cannot deliver head at 26:30:00 hrs.
   
  WARNING: Pump P78 closed because cannot deliver head at 26:40:00 hrs.
  WARNING: Pump P79 closed because cannot deliver head at 26:40:00 hrs.
   
  WARNING: Pump P78 closed because cannot deliver head at 26:50:00 hrs.
  WARNING: Pump P79 closed because cannot deliver head at 26:50:00 hrs.
   
  WARNING: Pump P78 closed because cannot deliver head at 98:00:00 hrs.
   
  WARNING: Pump P78 closed because cannot deliver head at 98:10:00 hrs.
   
  WARNING: Pump P78 closed because cannot deliver head at 98:20:00 hrs.
   
  WARNING: Pump P78 closed because cannot deliver head at 98:30:00 hrs.
   
  WARNING: Pump P78 closed because cannot deliver head at 98:40:00 hrs.
   
  WARNING: Pump P78 closed because cannot deliver head at 98:50:00 hrs.
   
  WARNING: Pump P78 closed because cannot deliver head at 27:00:00 hrs.
   
  WARNING: Pump P78 closed because cannot deliver head at 27:10:00 hrs.
   
  WARNING: Pump P78 closed because cannot deliver head at 27:20:00 hrs.
   
  WARNING: Pump P78 closed because cannot deliver head at 27:30:00 hrs.
   
  WARNING: Pump P78 closed because cannot deliver head at 27:40:00 hrs.
   
  WARNING: Pump P78 closed because cannot deliver head at 27:50:00 hrs.
   
  WARNING: Pump P78 closed because cannot deliver head at 49:45:02 hrs.
   
  WARNING: Pump P78 closed because cannot deliver head at 49:50:00 hrs.
   
  WARNING: Pump P78 closed because cannot deliver head at 50:00:00 hrs.
  WARNING: Pump P79 closed because cannot deliver head at 50:00:00 hrs.
   
  WARNING: Pump P78 closed because cannot deliver head at 50:10:00 hrs.
  WARNING: Pump P79 closed because cannot deliver head at 50:10:00 hrs.
   
  WARNING: Pump P78 closed because cannot deliver head at 50:20:00 hrs.
  WARNING: Pump P79 closed because cannot deliver head at 50:20:00 hrs.
   
  WARNING: Pump P78 closed because cannot deliver head at 50:30:00 hrs.
  WARNING: Pump P79 closed because cannot deliver head at 50:30:00 hrs.
   
  WARNING: Pump P78 closed because cannot deliver head at 50:40:00 hrs.
  WARNING: Pump P79 closed because cannot deliver head at 50:40:00 hrs.
   
  WARNING: Pump P78 closed because cannot deliver head at 50:50:00 hrs.
  WARNING: Pump P79 closed because cannot deliver head at 50:50:00 hrs.
   
  WARNING: Pump P78 closed because cannot deliver head at 2:00:00 hrs.
   
  WARNING: Pump P78 closed because cannot deliver head at 2:10:00 hrs.
   
  WARNING: Pump P78 closed because cannot deliver head at 2:20:00 hrs.
   
  WARNING: Pump P78 closed because cannot deliver head at 2:30:00 hrs.
   
  WARNING: Pump P78 closed because cannot deliver head at 2:40:00 hrs.
   
  WARNING: Pump P78 closed because cannot deliver head at 2:50:00 hrs.
   
  WARNING: Pump P78 closed because cannot deliver head at 146:00:00 hrs.
   
  WARNING: Pump P78 closed because cannot deliver head at 146:10:00 hrs.
   
  WARNING: Pump P78 closed because cannot deliver head at 146:20:00 hrs.
   
  WARNING: Pump P78 closed because cannot deliver head at 146:30:00 hrs.
   
  WARNING: Pump P78 closed because cannot deliver head at 146:40:00 hrs.
   
  WARNING: Pump P78 closed because cannot deliver head at 146:50:00 hrs.
   
  WARNING: Pump P78 closed because cannot deliver head at 50:56:22 hrs.
   
  WARNING: Pump P78 closed because cannot deliver head at 75:00:00 hrs.
   
  WARNING: Pump P78 closed because cannot deliver head at 75:10:00 hrs.
   
  WARNING: Pump P78 closed because cannot deliver head at 75:20:00 hrs.
   
  WARNING: Pump P78 closed because cannot deliver head at 75:30:00 hrs.
   
  WARNING: Pump P78 closed because cannot deliver head at 75:40:00 hrs.
   
  WARNING: Pump P78 closed because cannot deliver head at 75:50:00 hrs.
   
  WARNING: Pump P78 closed because cannot deliver head at 1:43:46 hrs.
  WARNING: Pump P79 closed because cannot deliver head at 1:43:46 hrs.
   
  WARNING: Pump P78 closed because cannot deliver head at 1:50:00 hrs.
  WARNING: Pump P79 closed because cannot deliver head at 1:50:00 hrs.
   
  WARNING: Pump P78 closed because cannot deliver head at 146:42:38 hrs.
   
  WARNING: Pump P78 closed because cannot deliver head at 146:50:00 hrs.
   
  WARNING: Pump P78 closed because cannot deliver head at 75:32:01 hrs.
   
  WARNING: Pump P78 closed because cannot deliver head at 75:40:00 hrs.
   
  WARNING: Pump P78 closed because cannot deliver head at 75:50:00 hrs.
   
  WARNING: Pump P79 closed because cannot deliver head at 1:47:09 hrs.
   
  WARNING: Pump P79 closed because cannot deliver head at 1:50:00 hrs.
   
  WARNING: Pump P78 closed because cannot deliver head at 100:29:51 hrs.
   
  WARNING: Pump P78 closed because cannot deliver head at 100:30:00 hrs.
   
  WARNING: Pump P78 closed because cannot deliver head at 100:40:00 hrs.
   
  WARNING: Pump P78 closed because cannot deliver head at 100:50:00 hrs.
   
  WARNING: Pump P78 closed because cannot deliver head at 1:43:46 hrs.
  WARNING: Pump P79 closed because cannot deliver head at 1:43:46 hrs.
   
  WARNING: Pump P78 closed because cannot deliver head at 1:50:00 hrs.
  WARNING: Pump P79 closed because cannot deliver head at 1:50:00 hrs.
   
  WARNING: Pump P78 closed because cannot deliver head at 74:00:00 hrs.
   
  WARNING: Pump P78 closed because cannot deliver head at 74:10:00 hrs.
   
  WARNING: Pump P78 closed because cannot deliver head at 74:20:00 hrs.
   
  WARNING: Pump P78 closed because cannot deliver head at 74:30:00 hrs.
   
  WARNING: Pump P78 closed because cannot deliver head at 74:40:00 hrs.
   
  WARNING: Pump P78 closed because cannot deliver head at 74:50:00 hrs.
   
  WARNING: Pump P78 closed because cannot deliver head at 74:46:46 hrs.
   
  WARNING: Pump P78 closed because cannot deliver head at 74:50:00 hrs.
   
  WARNING: Pump P78 closed because cannot deliver head at 75:00:00 hrs.
  WARNING: Pump P79 closed because cannot deliver head at 75:00:00 hrs.
   
  WARNING: Pump P78 closed because cannot deliver head at 75:10:00 hrs.
  WARNING: Pump P79 closed because cannot deliver head at 75:10:00 hrs.
   
  WARNING: Pump P78 closed because cannot deliver head at 75:20:00 hrs.
  WARNING: Pump P79 closed because cannot deliver head at 75:20:00 hrs.
   
  WARNING: Pump P78 closed because cannot deliver head at 75:30:00 hrs.
  WARNING: Pump P79 closed because cannot deliver head at 75:30:00 hrs.
   
  WARNING: Pump P78 closed because cannot deliver head at 75:40:00 hrs.
  WARNING: Pump P79 closed because cannot deliver head at 75:40:00 hrs.
   
  WARNING: Pump P78 closed because cannot deliver head at 75:50:00 hrs.
  WARNING: Pump P79 closed because cannot deliver head at 75:50:00 hrs.
   
  WARNING: Pump P78 closed because cannot deliver head at 145:17:25 hrs.
  WARNING: Pump P79 closed because cannot deliver head at 145:17:25 hrs.
   
  WARNING: Pump P78 closed because cannot deliver head at 145:20:00 hrs.
  WARNING: Pump P79 closed because cannot deliver head at 145:20:00 hrs.
   
  WARNING: Pump P78 closed because cannot deliver head at 145:30:00 hrs.
  WARNING: Pump P79 closed because cannot deliver head at 145:30:00 hrs.
   
  WARNING: Pump P78 closed because cannot deliver head at 145:40:00 hrs.
  WARNING: Pump P79 closed because cannot deliver head at 145:40:00 hrs.
   
  WARNING: Pump P78 closed because cannot deliver head at 145:50:00 hrs.
  WARNING: Pump P79 closed because cannot deliver head at 145:50:00 hrs.
   
  WARNING: Pump P78 closed because cannot deliver head at 1:51:43 hrs.
  WARNING: Pump P79 closed because cannot deliver head at 1:51:43 hrs.
   
  WARNING: Pump P78 closed because cannot deliver head at 26:17:11 hrs.
  WARNING: Pump P79 closed because cannot deliver head at 26:17:11 hrs.
   
  WARNING: Pump P78 closed because cannot deliver head at 26:20:00 hrs.
  WARNING: Pump P79 closed because cannot deliver head at 26:20:00 hrs.
   
  WARNING: Pump P78 closed because cannot deliver head at 26:30:00 hrs.
  WARNING: Pump P79 closed because cannot deliver head at 26:30:00 hrs.
   
  WARNING: Pump P78 closed because cannot deliver head at 26:40:00 hrs.
  WARNING: Pump P79 closed because cannot deliver head at 26:40:00 hrs.
   
  WARNING: Pump P78 closed because cannot deliver head at 26:50:00 hrs.
  WARNING: Pump P79 closed because cannot deliver head at 26:50:00 hrs.
   
  WARNING: Pump P78 closed because cannot deliver head at 26:28:56 hrs.
  WARNING: Pump P79 closed because cannot deliver head at 26:28:56 hrs.
   
  WARNING: Pump P78 closed because cannot deliver head at 26:30:00 hrs.
  WARNING: Pump P79 closed because cannot deliver head at 26:30:00 hrs.
   
  WARNING: Pump P78 closed because cannot deliver head at 26:40:00 hrs.
  WARNING: Pump P79 closed because cannot deliver head at 26:40:00 hrs.
   
  WARNING: Pump P78 closed because cannot deliver head at 26:50:00 hrs.
  WARNING: Pump P79 closed because cannot deliver head at 26:50:00 hrs.
   
  WARNING: Pump P78 closed because cannot deliver head at 50:23:54 hrs.
  WARNING: Pump P79 closed because cannot deliver head at 50:23:54 hrs.
   
  WARNING: Pump P78 closed because cannot deliver head at 50:30:00 hrs.
  WARNING: Pump P79 closed because cannot deliver head at 50:30:00 hrs.
   
  WARNING: Pump P78 closed because cannot deliver head at 50:40:00 hrs.
  WARNING: Pump P79 closed because cannot deliver head at 50:40:00 hrs.
   
  WARNING: Pump P78 closed because cannot deliver head at 50:50:00 hrs.
  WARNING: Pump P79 closed because cannot deliver head at 50:50:00 hrs.
   
  WARNING: Pump P78 closed because cannot deliver head at 73:21:02 hrs.
  WARNING: Pump P79 closed because cannot deliver head at 73:21:02 hrs.
   
  WARNING: Pump P78 closed because cannot deliver head at 73:30:00 hrs.
  WARNING: Pump P79 closed because cannot deliver head at 73:30:00 hrs.
   
  WARNING: Pump P78 closed because cannot deliver head at 73:40:00 hrs.
  WARNING: Pump P79 closed because cannot deliver head at 73:40:00 hrs.
   
  WARNING: Pump P78 closed because cannot deliver head at 73:50:00 hrs.
  WARNING: Pump P79 closed because cannot deliver head at 73:50:00 hrs.
   9 closed because cannot deliver head at 4:00:00 hrs.
   
  WARNING: Pump P79 closed because cannot deliver head at 4:10:00 hrs.
   
  WARNING: Pump P79 closed because cannot deliver head at 4:20:00 hrs.
   
  WARNING: Pump P79 closed because cannot deliver head at 4:30:00 hrs.
   
  WARNING: Pump P79 closed because cannot deliver head at 4:40:00 hrs.
   
  WARNING: Pump P79 closed because cannot deliver head at 4:50:00 hrs.
   
  WARNING: Pump P79 closed because cannot deliver head at 122:00:00 hrs.
   
  WARNING: Pump P79 closed because cannot deliver head at 122:10:00 hrs.
   
  WARNING: Pump P79 closed because cannot deliver head at 122:20:00 hrs.
   
  WARNING: Pump P79 closed because cannot deliver head at 122:30:00 hrs.
   
  WARNING: Pump P79 closed because cannot deliver head at 122:40:00 hrs.
   
  WARNING: Pump P79 closed because cannot deliver head at 122:50:00 hrs.
   
  WARNING: Pump P79 closed because cannot deliver head at 2:10:37 hrs.
   
  WARNING: Pump P79 closed because cannot deliver head at 2:20:00 hrs.
   
  WARNING: Pump P79 closed because cannot deliver head at 2:30:00 hrs.
   
  WARNING: Pump P79 closed because cannot deliver head at 2:40:00 hrs.
   
  WARNING: Pump P79 closed because cannot deliver head at 2:50:00 hrs.
   
  WARNING: Pump P79 closed because cannot deliver head at 99:00:00 hrs.
   
  WARNING: Pump P79 closed because cannot deliver head at 99:10:00 hrs.
   
  WARNING: Pump P79 closed because cannot deliver head at 99:20:00 hrs.
   
  WARNING: Pump P79 closed because cannot deliver head at 99:30:00 hrs.
   
  WARNING: Pump P79 closed because cannot deliver head at 99:40:00 hrs.
   
  WARNING: Pump P79 closed because cannot deliver head at 99:50:00 hrs.
   
  WARNING: Pump P79 closed because cannot deliver head at 2:00:00 hrs.
   
  WARNING: Pump P79 closed because cannot deliver head at 2:10:00 hrs.
   
  WARNING: Pump P79 closed because cannot deliver head at 2:20:00 hrs.
   
  WARNING: Pump P79 closed because cannot deliver head at 2:30:00 hrs.
   
  WARNING: Pump P79 closed because cannot deliver head at 2:40:00 hrs.
   
  WARNING: Pump P79 closed because cannot deliver head at 2:50:00 hrs.
   
  WARNING: Pump P79 closed because cannot deliver head at 74:00:00 hrs.
   
  WARNING: Pump P79 closed because cannot deliver head at 74:10:00 hrs.
   
  WARNING: Pump P79 closed because cannot deliver head at 74:20:00 hrs.
   
  WARNING: Pump P79 closed because cannot deliver head at 74:30:00 hrs.
   
  WARNING: Pump P79 closed because cannot deliver head at 74:40:00 hrs.
   
  WARNING: Pump P79 closed because cannot deliver head at 74:50:00 hrs.
   
  WARNING: Pump P79 closed because cannot deliver head at 1:56:34 hrs.
   
  WARNING: Pump P79 closed because cannot deliver head at 26:00:00 hrs.
   
  WARNING: Pump P79 closed because cannot deliver head at 26:10:00 hrs.
   
  WARNING: Pump P79 closed because cannot deliver head at 26:20:00 hrs.
   
  WARNING: Pump P79 closed because cannot deliver head at 26:30:00 hrs.
   
  WARNING: Pump P79 closed because cannot deliver head at 26:40:00 hrs.
   
  WARNING: Pump P79 closed because cannot deliver head at 26:50:00 hrs.
   
  WARNING: Pump P79 closed because cannot deliver head at 26:00:00 hrs.
   
  WARNING: Pump P79 closed because cannot deliver head at 26:10:00 hrs.
   
  WARNING: Pump P79 closed because cannot deliver head at 26:20:00 hrs.
   
  WARNING: Pump P79 closed because cannot deliver head at 26:30:00 hrs.
   
  WARNING: Pump P79 closed because cannot deliver head at 26:40:00 hrs.
   
  WARNING: Pump P79 closed because cannot deliver head at 26:50:00 hrs.
   
  WARNING: Pump P79 closed because cannot deliver head at 97:00:00 hrs.
   
  WARNING: Pump P79 closed because cannot deliver head at 97:10:00 hrs.
   
  WARNING: Pump P79 closed because cannot deliver head at 97:20:00 hrs.
   
  WARNING: Pump P79 closed because cannot deliver head at 97:30:00 hrs.
   
  WARNING: Pump P79 closed because cannot deliver head at 97:40:00 hrs.
   
  WARNING: Pump P79 closed because cannot deliver head at 97:50:00 hrs.
   
  WARNING: Pump P79 closed because cannot deliver head at 1:44:14 hrs.
   
  WARNING: Pump P79 closed because cannot deliver head at 1:50:00 hrs.
   
  WARNING: Pump P79 closed because cannot deliver head at 2:00:00 hrs.
   
  WARNING: Pump P79 closed because cannot deliver head at 2:10:00 hrs.
   
  WARNING: Pump P79 closed because cannot deliver head at 2:20:00 hrs.
   
  WARNING: Pump P79 closed because cannot deliver head at 2:30:00 hrs.
   
  WARNING: Pump P79 closed because cannot deliver head at 2:40:00 hrs.
   
  WARNING: Pump P79 closed because cannot deliver head at 2:50:00 hrs.
   
  WARNING: Pump P79 closed because cannot deliver head at 122:00:00 hrs.
   
  WARNING: Pump P79 closed because cannot deliver head at 122:10:00 hrs.
   
  WARNING: Pump P79 closed because cannot deliver head at 122:20:00 hrs.
   
  WARNING: Pump P79 closed because cannot deliver head at 122:30:00 hrs.
   
  WARNING: Pump P79 closed because cannot deliver head at 122:40:00 hrs.
   
  WARNING: Pump P79 closed because cannot deliver head at 122:50:00 hrs.
   
  WARNING: Pump P79 closed because cannot deliver head at 1:58:13 hrs.
   
  WARNING: Pump P79 closed because cannot deliver head at 26:00:00 hrs.
   
  WARNING: Pump P79 closed because cannot deliver head at 26:10:00 hrs.
   
  WARNING: Pump P79 closed because cannot deliver head at 26:20:00 hrs.
   
  WARNING: Pump P79 closed because cannot deliver head at 26:30:00 hrs.
   
  WARNING: Pump P79 closed because cannot deliver head at 26:40:00 hrs.
   
  WARNING: Pump P79 closed because cannot deliver head at 26:50:00 hrs.
   
  WARNING: Pump P79 closed because cannot deliver head at 146:00:00 hrs.
   
  WARNING: Pump P79 closed because cannot deliver head at 146:10:00 hrs.
   
  WARNING: Pump P79 closed because cannot deliver head at 146:20:00 hrs.
   
  WARNING: Pump P79 closed because cannot deliver head at 146:30:00 hrs.
   
  WARNING: Pump P79 closed because cannot deliver head at 146:40:00 hrs.
   
  WARNING: Pump P79 closed because cannot deliver head at 146:50:00 hrs.
   
  WARNING: Pump P79 closed because cannot deliver head at 146:00:00 hrs.
   
  WARNING: Pump P79 closed because cannot deliver head at 146:10:00 hrs.
   
  WARNING: Pump P79 closed because cannot deliver head at 146:20:00 hrs.
   
  WARNING: Pump P79 closed because cannot deliver head at 146:30:00 hrs.
   
  WARNING: Pump P79 closed because cannot deliver head at 146:40:00 hrs.
   
  WARNING: Pump P79 closed because cannot deliver head at 146:50:00 hrs.
   
  WARNING: Pump P78 closed because cannot deliver head at 73:00:00 hrs.
   
  WARNING: Pump P78 closed because cannot deliver head at 73:10:00 hrs.
   
  WARNING: Pump P78 closed because cannot deliver head at 73:20:00 hrs.
   
  WARNING: Pump P78 closed because cannot deliver head at 73:30:00 hrs.
   
  WARNING: Pump P78 closed because cannot deliver head at 73:40:00 hrs.
   
  WARNING: Pump P78 closed because cannot deliver head at 73:50:00 hrs.
   
  WARNING: Pump P78 closed because cannot deliver head at 98:00:00 hrs.
   
  WARNING: Pump P78 closed because cannot deliver head at 98:10:00 hrs.
   
  WARNING: Pump P78 closed because cannot deliver head at 98:20:00 hrs.
   
  WARNING: Pump P78 closed because cannot deliver head at 98:30:00 hrs.
   
  WARNING: Pump P78 closed because cannot deliver head at 98:40:00 hrs.
   
  WARNING: Pump P78 closed because cannot deliver head at 98:50:00 hrs.
   
  WARNING: Pump P79 closed because cannot deliver head at 26:00:00 hrs.
   
  WARNING: Pump P79 closed because cannot deliver head at 26:10:00 hrs.
   
  WARNING: Pump P79 closed because cannot deliver head at 26:20:00 hrs.
   
  WARNING: Pump P79 closed because cannot deliver head at 26:30:00 hrs.
   
  WARNING: Pump P79 closed because cannot deliver head at 26:40:00 hrs.
   
  WARNING: Pump P79 closed because cannot deliver head at 26:50:00 hrs.
   
  WARNING: Pump P79 closed because cannot deliver head at 98:00:00 hrs.
   
  WARNING: Pump P79 closed because cannot deliver head at 98:10:00 hrs.
   
  WARNING: Pump P79 closed because cannot deliver head at 98:20:00 hrs.
   
  WARNING: Pump P79 closed because cannot deliver head at 98:30:00 hrs.
   
  WARNING: Pump P79 closed because cannot deliver head at 98:40:00 hrs.
   
  WARNING: Pump P79 closed because cannot deliver head at 98:50:00 hrs.
   
  WARNING: Pump P79 closed because cannot deliver head at 122:00:00 hrs.
   
  WARNING: Pump P79 closed because cannot deliver head at 122:10:00 hrs.
   
  WARNING: Pump P79 closed because cannot deliver head at 122:20:00 hrs.
   
  WARNING: Pump P79 closed because cannot deliver head at 122:30:00 hrs.
   
  WARNING: Pump P79 closed because cannot deliver head at 122:40:00 hrs.
   
  WARNING: Pump P79 closed because cannot deliver head at 122:50:00 hrs.
   
  WARNING: Pump P78 closed because cannot deliver head at 26:00:00 hrs.
   
  WARNING: Pump P78 closed because cannot deliver head at 26:10:00 hrs.
   
  WARNING: Pump P78 closed because cannot deliver head at 26:20:00 hrs.
   
  WARNING: Pump P78 closed because cannot deliver head at 26:30:00 hrs.
   
  WARNING: Pump P78 closed because cannot deliver head at 26:40:00 hrs.
   
  WARNING: Pump P78 closed because cannot deliver head at 26:50:00 hrs.
   
  WARNING: Pump P79 closed because cannot deliver head at 74:00:00 hrs.
   
  WARNING: Pump P79 closed because cannot deliver head at 74:10:00 hrs.
   
  WARNING: Pump P79 closed because cannot deliver head at 74:20:00 hrs.
   
  WARNING: Pump P79 closed because cannot deliver head at 74:30:00 hrs.
   
  WARNING: Pump P79 closed because cannot deliver head at 74:40:00 hrs.
   
  WARNING: Pump P79 closed because cannot deliver head at 74:50:00 hrs.
   
  WARNING: Pump P79 closed because cannot deliver head at 97:00:00 hrs.
   
  WARNING: Pump P79 closed because cannot deliver head at 97:10:00 hrs.
   
  WARNING: Pump P79 closed because cannot deliver head at 97:20:00 hrs.
   
  WARNING: Pump P79 closed because cannot deliver head at 97:30:00 hrs.
   
  WARNING: Pump P79 closed because cannot deliver head at 97:40:00 hrs.
   
  WARNING: Pump P79 closed because cannot deliver head at 97:50:00 hrs.
   
  WARNING: Pump P79 closed because cannot deliver head at 98:00:00 hrs.
   
  WARNING: Pump P79 closed because cannot deliver head at 98:10:00 hrs.
   
  WARNING: Pump P79 closed because cannot deliver head at 98:20:00 hrs.
   
  WARNING: Pump P79 closed because cannot deliver head at 98:30:00 hrs.
   
  WARNING: Pump P79 closed because cannot deliver head at 98:40:00 hrs.
   
  WARNING: Pump P79 closed because cannot deliver head at 98:50:00 hrs.
   
  WARNING: Pump P79 closed because cannot deliver head at 26:00:00 hrs.
   
  WARNING: Pump P79 closed because cannot deliver head at 26:10:00 hrs.
   
  WARNING: Pump P79 closed because cannot deliver head at 26:20:00 hrs.
   
  WARNING: Pump P79 closed because cannot deliver head at 26:30:00 hrs.
   
  WARNING: Pump P79 closed because cannot deliver head at 26:40:00 hrs.
   
  WARNING: Pump P79 closed because cannot deliver head at 26:50:00 hrs.
   
  WARNING: Pump P79 closed because cannot deliver head at 26:00:00 hrs.
   
  WARNING: Pump P79 closed because cannot deliver head at 26:10:00 hrs.
   
  WARNING: Pump P79 closed because cannot deliver head at 26:20:00 hrs.
   
  WARNING: Pump P79 closed because cannot deliver head at 26:30:00 hrs.
   
  WARNING: Pump P79 closed because cannot deliver head at 26:40:00 hrs.
   
  WARNING: Pump P79 closed because cannot deliver head at 26:50:00 hrs.
   
  WARNING: Pump P79 closed because cannot deliver head at 26:00:00 hrs.
   
  WARNING: Pump P79 closed because cannot deliver head at 26:10:00 hrs.
   
  WARNING: Pump P79 closed because cannot deliver head at 26:20:00 hrs.
   
  WARNING: Pump P79 closed because cannot deliver head at 26:30:00 hrs.
   
  WARNING: Pump P79 closed because cannot deliver head at 26:40:00 hrs.
   
  WARNING: Pump P79 closed because cannot deliver head at 26:50:00 hrs.
   
  WARNING: Pump P78 closed because cannot deliver head at 26:00:00 hrs.
  WARNING: Pump P79 closed because cannot deliver head at 26:00:00 hrs.
   
  WARNING: Pump P78 closed because cannot deliver head at 26:10:00 hrs.
  WARNING: Pump P79 closed because cannot deliver head at 26:10:00 hrs.
   
  WARNING: Pump P78 closed because cannot deliver head at 26:20:00 hrs.
  WARNING: Pump P79 closed because cannot deliver head at 26:20:00 hrs.
   
  WARNING: Pump P78 closed because cannot deliver head at 26:30:00 hrs.
  WARNING: Pump P79 closed because cannot deliver head at 26:30:00 hrs.
   
  WARNING: Pump P78 closed because cannot deliver head at 26:40:00 hrs.
  WARNING: Pump P79 closed because cannot deliver head at 26:40:00 hrs.
   
  WARNING: Pump P78 closed because cannot deliver head at 26:50:00 hrs.
  WARNING: Pump P79 closed because cannot deliver head at 26:50:00 hrs.
   
  WARNING: Pump P78 closed because cannot deliver head at 50:00:00 hrs.
   
  WARNING: Pump P78 closed because cannot deliver head at 50:10:00 hrs.
   
  WARNING: Pump P78 closed because cannot deliver head at 50:20:00 hrs.
   
  WARNING: Pump P78 closed because cannot deliver head at 50:30:00 hrs.
   
  WARNING: Pump P78 closed because cannot deliver head at 50:40:00 hrs.
   
  WARNING: Pump P78 closed because cannot deliver head at 50:50:00 hrs.
   
  WARNING: Pump P79 closed because cannot deliver head at 2:00:00 hrs.
   
  WARNING: Pump P79 closed because cannot deliver head at 2:10:00 hrs.
   
  WARNING: Pump P79 closed because cannot deliver head at 2:20:00 hrs.
   
  WARNING: Pump P79 closed because cannot deliver head at 2:30:00 hrs.
   
  WARNING: Pump P79 closed because cannot deliver head at 2:40:00 hrs.
   
  WARNING: Pump P79 closed because cannot deliver head at 2:50:00 hrs.
   
  WARNING: Pump P79 closed because cannot deliver head at 75:00:00 hrs.
   
  WARNING: Pump P79 closed because cannot deliver head at 75:10:00 hrs.
   
  WARNING: Pump P79 closed because cannot deliver head at 75:20:00 hrs.
   
  WARNING: Pump P79 closed because cannot deliver head at 75:30:00 hrs.
   
  WARNING: Pump P79 closed because cannot deliver head at 75:40:00 hrs.
   
  WARNING: Pump P79 closed because cannot deliver head at 75:50:00 hrs.
   
  WARNING: Pump P78 closed because cannot deliver head at 3:00:00 hrs.
  WARNING: Pump P79 closed because cannot deliver head at 3:00:00 hrs.
   
  WARNING: Pump P78 closed because cannot deliver head at 3:10:00 hrs.
  WARNING: Pump P79 closed because cannot deliver head at 3:10:00 hrs.
   
  WARNING: Pump P78 closed because cannot deliver head at 3:20:00 hrs.
  WARNING: Pump P79 closed because cannot deliver head at 3:20:00 hrs.
   
  WARNING: Pump P78 closed because cannot deliver head at 3:30:00 hrs.
  WARNING: Pump P79 closed because cannot deliver head at 3:30:00 hrs.
   
  WARNING: Pump P78 closed because cannot deliver head at 3:40:00 hrs.
  WARNING: Pump P79 closed because cannot deliver head at 3:40:00 hrs.
   
  WARNING: Pump P78 closed because cannot deliver head at 3:50:00 hrs.
  WARNING: Pump P79 closed because cannot deliver head at 3:50:00 hrs.
   
  WARNING: Pump P79 closed because cannot deliver head at 2:00:00 hrs.
   
  WARNING: Pump P79 closed because cannot deliver head at 2:10:00 hrs.
   
  WARNING: Pump P79 closed because cannot deliver head at 2:20:00 hrs.
   
  WARNING: Pump P79 closed because cannot deliver head at 2:30:00 hrs.
   
  WARNING: Pump P79 closed because cannot deliver head at 2:40:00 hrs.
   
  WARNING: Pump P79 closed because cannot deliver head at 2:50:00 hrs.
   
  WARNING: Pump P79 closed because cannot deliver head at 1:56:29 hrs.
   
  WARNING: Pump P79 closed because cannot deliver head at 2:00:00 hrs.
   
  WARNING: Pump P79 closed because cannot deliver head at 2:10:00 hrs.
   
  WARNING: Pump P79 closed because cannot deliver head at 2:20:00 hrs.
   
  WARNING: Pump P79 closed because cannot deliver head at 2:30:00 hrs.
   
  WARNING: Pump P79 closed because cannot deliver head at 2:40:00 hrs.
   
  WARNING: Pump P79 closed because cannot deliver head at 2:50:00 hrs.
   