  Page 1                                    Mon Dec 15 14:13:15 2025

  ******************************************************************
  *                           E P A N E T                          *
  *                   Hydraulic and Water Quality                  *
  *                   Analysis for Pipe Networks                   *
  *                         Version 2.2                            *
  ******************************************************************
  
  Analysis begun Mon Dec 15 14:13:15 2025

  WARNING: Pump P79 closed because cannot deliver head at 26:03:38 hrs.
   