  Page 1                                    Sun Dec 14 15:09:43 2025

  ******************************************************************
  *                           E P A N E T                          *
  *                   Hydraulic and Water Quality                  *
  *                   Analysis for Pipe Networks                   *
  *                         Version 2.2                            *
  ******************************************************************
  
  Analysis begun Sun Dec 14 15:09:43 2025

  WARNING: Pump P79 closed because cannot deliver head at 98:11:07 hrs.
   
  WARNING: Pump P79 closed because cannot deliver head at 98:20:00 hrs.
   
  WARNING: Pump P79 closed because cannot deliver head at 98:30:00 hrs.
   
  WARNING: Pump P79 closed because cannot deliver head at 98:40:00 hrs.
   
  WARNING: Pump P79 closed because cannot deliver head at 98:50:00 hrs.
   
  WARNING: Pump P78 closed because cannot deliver head at 74:00:00 hrs.
  WARNING: Pump P79 closed because cannot deliver head at 74:00:00 hrs.
   
  WARNING: Pump P78 closed because cannot deliver head at 74:10:00 hrs.
  WARNING: Pump P79 closed because cannot deliver head at 74:10:00 hrs.
   
  WARNING: Pump P78 closed because cannot deliver head at 74:20:00 hrs.
  WARNING: Pump P79 closed because cannot deliver head at 74:20:00 hrs.
   
  WARNING: Pump P78 closed because cannot deliver head at 74:30:00 hrs.
  WARNING: Pump P79 closed because cannot deliver head at 74:30:00 hrs.
   
  WARNING: Pump P78 closed because cannot deliver head at 74:40:00 hrs.
  WARNING: Pump P79 closed because cannot deliver head at 74:40:00 hrs.
   
  WARNING: Pump P78 closed because cannot deliver head at 74:50:00 hrs.
  WARNING: Pump P79 closed because cannot deliver head at 74:50:00 hrs.
   
  WARNING: Pump P78 closed because cannot deliver head at 2:49:36 hrs.
   
  WARNING: Pump P78 closed because cannot deliver head at 2:50:00 hrs.
   
  WARNING: Pump P79 closed because cannot deliver head at 51:00:00 hrs.
   
  WARNING: Pump P79 closed because cannot deliver head at 51:10:00 hrs.
   
  WARNING: Pump P79 closed because cannot deliver head at 51:20:00 hrs.
   
  WARNING: Pump P79 closed because cannot deliver head at 51:30:00 hrs.
   
  WARNING: Pump P79 closed because cannot deliver head at 51:40:00 hrs.
   
  WARNING: Pump P79 closed because cannot deliver head at 51:50:00 hrs.
   
  WARNING: Pump P79 closed because cannot deliver head at 122:00:00 hrs.
   
  WARNING: Pump P79 closed because cannot deliver head at 122:10:00 hrs.
   
  WARNING: Pump P79 closed because cannot deliver head at 122:20:00 hrs.
   
  WARNING: Pump P79 closed because cannot deliver head at 122:30:00 hrs.
   
  WARNING: Pump P79 closed because cannot deliver head at 122:40:00 hrs.
   
  WARNING: Pump P79 closed because cannot deliver head at 122:50:00 hrs.
   
  WARNING: Pump P78 closed because cannot deliver head at 98:00:00 hrs.
  WARNING: Pump P79 closed because cannot deliver head at 98:00:00 hrs.
   
  WARNING: Pump P78 closed because cannot deliver head at 98:10:00 hrs.
  WARNING: Pump P79 closed because cannot deliver head at 98:10:00 hrs.
   
  WARNING: Pump P78 closed because cannot deliver head at 98:20:00 hrs.
  WARNING: Pump P79 closed because cannot deliver head at 98:20:00 hrs.
   
  WARNING: Pump P78 closed because cannot deliver head at 98:30:00 hrs.
  WARNING: Pump P79 closed because cannot deliver head at 98:30:00 hrs.
   
  WARNING: Pump P78 closed because cannot deliver head at 98:40:00 hrs.
  WARNING: Pump P79 closed because cannot deliver head at 98:40:00 hrs.
   
  WARNING: Pump P78 closed because cannot deliver head at 98:50:00 hrs.
  WARNING: Pump P79 closed because cannot deliver head at 98:50:00 hrs.
   
  WARNING: Pump P78 closed because cannot deliver head at 98:27:01 hrs.
   
  WARNING: Pump P78 closed because cannot deliver head at 98:30:00 hrs.
   
  WARNING: Pump P78 closed because cannot deliver head at 98:40:00 hrs.
   
  WARNING: Pump P78 closed because cannot deliver head at 98:50:00 hrs.
   
  WARNING: Pump P79 closed because cannot deliver head at 123:08:47 hrs.
   
  WARNING: Pump P79 closed because cannot deliver head at 123:10:00 hrs.
   
  WARNING: Pump P79 closed because cannot deliver head at 123:20:00 hrs.
   
  WARNING: Pump P79 closed because cannot deliver head at 123:30:00 hrs.
   
  WARNING: Pump P79 closed because cannot deliver head at 123:40:00 hrs.
   
  WARNING: Pump P79 closed because cannot deliver head at 123:50:00 hrs.
   
  WARNING: Pump P79 closed because cannot deliver head at 74:09:05 hrs.
   
  WARNING: Pump P79 closed because cannot deliver head at 74:10:00 hrs.
   
  WARNING: Pump P79 closed because cannot deliver head at 74:20:00 hrs.
   
  WARNING: Pump P79 closed because cannot deliver head at 74:30:00 hrs.
   
  WARNING: Pump P79 closed because cannot deliver head at 74:40:00 hrs.
   
  WARNING: Pump P79 closed because cannot deliver head at 74:50:00 hrs.
   
  WARNING: Pump P78 closed because cannot deliver head at 98:00:00 hrs.
   
  WARNING: Pump P78 closed because cannot deliver head at 98:10:00 hrs.
   
  WARNING: Pump P78 closed because cannot deliver head at 98:20:00 hrs.
   
  WARNING: Pump P78 closed because cannot deliver head at 98:30:00 hrs.
   
  WARNING: Pump P78 closed because cannot deliver head at 98:40:00 hrs.
   
  WARNING: Pump P78 closed because cannot deliver head at 98:50:00 hrs.
   
  WARNING: Pump P79 closed because cannot deliver head at 74:00:00 hrs.
   
  WARNING: Pump P79 closed because cannot deliver head at 74:10:00 hrs.
   
  WARNING: Pump P79 closed because cannot deliver head at 74:20:00 hrs.
   
  WARNING: Pump P79 closed because cannot deliver head at 74:30:00 hrs.
   
  WARNING: Pump P79 closed because cannot deliver head at 74:40:00 hrs.
   
  WARNING: Pump P79 closed because cannot deliver head at 74:50:00 hrs.
   
  WARNING: Pump P78 closed because cannot deliver head at 97:00:00 hrs.
  WARNING: Pump P79 closed because cannot deliver head at 97:00:00 hrs.
   
  WARNING: Pump P78 closed because cannot deliver head at 97:10:00 hrs.
  WARNING: Pump P79 closed because cannot deliver head at 97:10:00 hrs.
   
  WARNING: Pump P78 closed because cannot deliver head at 97:20:00 hrs.
  WARNING: Pump P79 closed because cannot deliver head at 97:20:00 hrs.
   
  WARNING: Pump P78 closed because cannot deliver head at 97:30:00 hrs.
  WARNING: Pump P79 closed because cannot deliver head at 97:30:00 hrs.
   
  WARNING: Pump P78 closed because cannot deliver head at 97:40:00 hrs.
  WARNING: Pump P79 closed because cannot deliver head at 97:40:00 hrs.
   
  WARNING: Pump P78 closed because cannot deliver head at 97:50:00 hrs.
  WARNING: Pump P79 closed because cannot deliver head at 97:50:00 hrs.
   
  WARNING: Pump P78 closed because cannot deliver head at 146:00:00 hrs.
   
  WARNING: Pump P78 closed because cannot deliver head at 146:10:00 hrs.
   
  WARNING: Pump P78 closed because cannot deliver head at 146:20:00 hrs.
   
  WARNING: Pump P78 closed because cannot deliver head at 146:30:00 hrs.
   
  WARNING: Pump P78 closed because cannot deliver head at 146:40:00 hrs.
   
  WARNING: Pump P78 closed because cannot deliver head at 146:50:00 hrs.
   
  WARNING: Pump P78 closed because cannot deliver head at 1:43:14 hrs.
  WARNING: Pump P79 closed because cannot deliver head at 1:43:14 hrs.
   
  WARNING: Pump P78 closed because cannot deliver head at 1:50:00 hrs.
  WARNING: Pump P79 closed because cannot deliver head at 1:50:00 hrs.
   
  WARNING: Pump P78 closed because cannot deliver head at 97:00:00 hrs.
   
  WARNING: Pump P78 closed because cannot deliver head at 97:10:00 hrs.
   
  WARNING: Pump P78 closed because cannot deliver head at 97:20:00 hrs.
   
  WARNING: Pump P78 closed because cannot deliver head at 97:30:00 hrs.
   
  WARNING: Pump P78 closed because cannot deliver head at 97:40:00 hrs.
   
  WARNING: Pump P78 closed because cannot deliver head at 97:50:00 hrs.
   
  WARNING: Pump P78 closed because cannot deliver head at 100:03:19 hrs.
   
  WARNING: Pump P78 closed because cannot deliver head at 100:10:00 hrs.
   
  WARNING: Pump P78 closed because cannot deliver head at 100:20:00 hrs.
   
  WARNING: Pump P78 closed because cannot deliver head at 100:30:00 hrs.
   
  WARNING: Pump P78 closed because cannot deliver head at 100:40:00 hrs.
   
  WARNING: Pump P78 closed because cannot deliver head at 100:50:00 hrs.
   
  WARNING: Pump P78 closed because cannot deliver head at 97:00:00 hrs.
   
  WARNING: Pump P78 closed because cannot deliver head at 97:10:00 hrs.
   
  WARNING: Pump P78 closed because cannot deliver head at 97:20:00 hrs.
   
  WARNING: Pump P78 closed because cannot deliver head at 97:30:00 hrs.
   
  WARNING: Pump P78 closed because cannot deliver head at 97:40:00 hrs.
   
  WARNING: Pump P78 closed because cannot deliver head at 97:50:00 hrs.
   
  WARNING: Pump P78 closed because cannot deliver head at 98:00:00 hrs.
   
  WARNING: Pump P78 closed because cannot deliver head at 98:10:00 hrs.
   
  WARNING: Pump P78 closed because cannot deliver head at 98:20:00 hrs.
   
  WARNING: Pump P78 closed because cannot deliver head at 98:30:00 hrs.
   
  WARNING: Pump P78 closed because cannot deliver head at 98:40:00 hrs.
   
  WARNING: Pump P78 closed because cannot deliver head at 98:50:00 hrs.
   
  WARNING: Pump P79 closed because cannot deliver head at 146:00:00 hrs.
   
  WARNING: Pump P79 closed because cannot deliver head at 146:10:00 hrs.
   
  WARNING: Pump P79 closed because cannot deliver head at 146:20:00 hrs.
   
  WARNING: Pump P79 closed because cannot deliver head at 146:30:00 hrs.
   
  WARNING: Pump P79 closed because cannot deliver head at 146:40:00 hrs.
   
  WARNING: Pump P79 closed because cannot deliver head at 146:50:00 hrs.
   
  WARNING: Pump P78 closed because cannot deliver head at 1:47:09 hrs.
   
  WARNING: Pump P78 closed because cannot deliver head at 1:50:00 hrs.
   
  WARNING: Pump P79 closed because cannot deliver head at 97:00:00 hrs.
   
  WARNING: Pump P79 closed because cannot deliver head at 97:10:00 hrs.
   
  WARNING: Pump P79 closed because cannot deliver head at 97:20:00 hrs.
   
  WARNING: Pump P79 closed because cannot deliver head at 97:30:00 hrs.
   
  WARNING: Pump P79 closed because cannot deliver head at 97:40:00 hrs.
   
  WARNING: Pump P79 closed because cannot deliver head at 97:50:00 hrs.
   
  WARNING: Pump P78 closed because cannot deliver head at 3:00:00 hrs.
  WARNING: Pump P79 closed because cannot deliver head at 3:00:00 hrs.
   
  WARNING: Pump P78 closed because cannot deliver head at 3:10:00 hrs.
  WARNING: Pump P79 closed because cannot deliver head at 3:10:00 hrs.
   
  WARNING: Pump P78 closed because cannot deliver head at 3:20:00 hrs.
  WARNING: Pump P79 closed because cannot deliver head at 3:20:00 hrs.
   
  WARNING: Pump P78 closed because cannot deliver head at 3:30:00 hrs.
  WARNING: Pump P79 closed because cannot deliver head at 3:30:00 hrs.
   
  WARNING: Pump P78 closed because cannot deliver head at 3:40:00 hrs.
  WARNING: Pump P79 closed because cannot deliver head at 3:40:00 hrs.
   
  WARNING: Pump P78 closed because cannot deliver head at 3:50:00 hrs.
  WARNING: Pump P79 closed because cannot deliver head at 3:50:00 hrs.
   
  WARNING: Pump P78 closed because cannot deliver head at 25:13:48 hrs.
  WARNING: Pump P79 closed because cannot deliver head at 25:13:48 hrs.
   
  WARNING: Pump P78 closed because cannot deliver head at 25:20:00 hrs.
  WARNING: Pump P79 closed because cannot deliver head at 25:20:00 hrs.
   
  WARNING: Pump P78 closed because cannot deliver head at 25:30:00 hrs.
  WARNING: Pump P79 closed because cannot deliver head at 25:30:00 hrs.
   
  WARNING: Pump P78 closed because cannot deliver head at 25:40:00 hrs.
  WARNING: Pump P79 closed because cannot deliver head at 25:40:00 hrs.
   
  WARNING: Pump P78 closed because cannot deliver head at 25:50:00 hrs.
  WARNING: Pump P79 closed because cannot deliver head at 25:50:00 hrs.
   
  WARNING: Pump P79 closed because cannot deliver head at 146:00:00 hrs.
   
  WARNING: Pump P79 closed because cannot deliver head at 146:10:00 hrs.
   
  WARNING: Pump P79 closed because cannot deliver head at 146:20:00 hrs.
   
  WARNING: Pump P79 closed because cannot deliver head at 146:30:00 hrs.
   
  WARNING: Pump P79 closed because cannot deliver head at 146:40:00 hrs.
   
  WARNING: Pump P79 closed because cannot deliver head at 146:50:00 hrs.
   
  WARNING: Pump P79 closed because cannot deliver head at 98:00:00 hrs.
   
  WARNING: Pump P79 closed because cannot deliver head at 98:10:00 hrs.
   
  WARNING: Pump P79 closed because cannot deliver head at 98:20:00 hrs.
   
  WARNING: Pump P79 closed because cannot deliver head at 98:30:00 hrs.
   
  WARNING: Pump P79 closed because cannot deliver head at 98:40:00 hrs.
   
  WARNING: Pump P79 closed because cannot deliver head at 98:50:00 hrs.
   
  WARNING: Pump P78 closed because cannot deliver head at 2:18:39 hrs.
  WARNING: Pump P79 closed because cannot deliver head at 2:18:39 hrs.
   
  WARNING: Pump P78 closed because cannot deliver head at 2:20:00 hrs.
  WARNING: Pump P79 closed because cannot deliver head at 2:20:00 hrs.
   
  WARNING: Pump P78 closed because cannot deliver head at 2:30:00 hrs.
  WARNING: Pump P79 closed because cannot deliver head at 2:30:00 hrs.
   
  WARNING: Pump P78 closed because cannot deliver head at 2:40:00 hrs.
  WARNING: Pump P79 closed because cannot deliver head at 2:40:00 hrs.
   
  WARNING: Pump P78 closed because cannot deliver head at 2:50:00 hrs.
  WARNING: Pump P79 closed because cannot deliver head at 2:50:00 hrs.
   
  WARNING: Pump P79 closed because cannot deliver head at 1:54:27 hrs.
   
  WARNING: Pump P78 closed because cannot deliver head at 97:00:00 hrs.
   
  WARNING: Pump P78 closed because cannot deliver head at 97:10:00 hrs.
   
  WARNING: Pump P78 closed because cannot deliver head at 97:20:00 hrs.
   
  WARNING: Pump P78 closed because cannot deliver head at 97:30:00 hrs.
   
  WARNING: Pump P78 closed because cannot deliver head at 97:40:00 hrs.
   
  WARNING: Pump P78 closed because cannot deliver head at 97:50:00 hrs.
   
  WARNING: Pump P79 closed because cannot deliver head at 145:00:00 hrs.
   
  WARNING: Pump P79 closed because cannot deliver head at 145:10:00 hrs.
   
  WARNING: Pump P79 closed because cannot deliver head at 145:20:00 hrs.
   
  WARNING: Pump P79 closed because cannot deliver head at 145:30:00 hrs.
   
  WARNING: Pump P79 closed because cannot deliver head at 145:40:00 hrs.
   
  WARNING: Pump P79 closed because cannot deliver head at 145:50:00 hrs.
   
  WARNING: Pump P78 closed because cannot deliver head at 1:49:38 hrs.
  WARNING: Pump P79 closed because cannot deliver head at 1:49:38 hrs.
   
  WARNING: Pump P78 closed because cannot deliver head at 1:50:00 hrs.
  WARNING: Pump P79 closed because cannot deliver head at 1:50:00 hrs.
   
  WARNING: Pump P79 closed because cannot deliver head at 97:00:00 hrs.
   
  WARNING: Pump P79 closed because cannot deliver head at 97:10:00 hrs.
   
  WARNING: Pump P79 closed because cannot deliver head at 97:20:00 hrs.
   
  WARNING: Pump P79 closed because cannot deliver head at 97:30:00 hrs.
   
  WARNING: Pump P79 closed because cannot deliver head at 97:40:00 hrs.
   
  WARNING: Pump P79 closed because cannot deliver head at 97:50:00 hrs.
   
  WARNING: Pump P79 closed because cannot deliver head at 145:00:00 hrs.
   
  WARNING: Pump P79 closed because cannot deliver head at 145:10:00 hrs.
   
  WARNING: Pump P79 closed because cannot deliver head at 145:20:00 hrs.
   
  WARNING: Pump P79 closed because cannot deliver head at 145:30:00 hrs.
   
  WARNING: Pump P79 closed because cannot deliver head at 145:40:00 hrs.
   
  WARNING: Pump P79 closed because cannot deliver head at 145:50:00 hrs.
   
  WARNING: Pump P78 closed because cannot deliver head at 26:00:00 hrs.
   
  WARNING: Pump P78 closed because cannot deliver head at 26:10:00 hrs.
   
  WARNING: Pump P78 closed because cannot deliver head at 26:20:00 hrs.
   
  WARNING: Pump P78 closed because cannot deliver head at 26:30:00 hrs.
   
  WARNING: Pump P78 closed because cannot deliver head at 26:40:00 hrs.
   
  WARNING: Pump P78 closed because cannot deliver head at 26:50:00 hrs.
   
  WARNING: Pump P78 closed because cannot deliver head at 73:21:48 hrs.
  WARNING: Pump P79 closed because cannot deliver head at 73:21:48 hrs.
   
  WARNING: Pump P78 closed because cannot deliver head at 73:30:00 hrs.
  WARNING: Pump P79 closed because cannot deliver head at 73:30:00 hrs.
   
  WARNING: Pump P78 closed because cannot deliver head at 73:40:00 hrs.
  WARNING: Pump P79 closed because cannot deliver head at 73:40:00 hrs.
   
  WARNING: Pump P78 closed because cannot deliver head at 73:50:00 hrs.
  WARNING: Pump P79 closed because cannot deliver head at 73:50:00 hrs.
   
  WARNING: Pump P78 closed because cannot deliver head at 146:00:00 hrs.
   
  WARNING: Pump P78 closed because cannot deliver head at 146:10:00 hrs.
   
  WARNING: Pump P78 closed because cannot deliver head at 146:20:00 hrs.
   
  WARNING: Pump P78 closed because cannot deliver head at 146:30:00 hrs.
   
  WARNING: Pump P78 closed because cannot deliver head at 146:40:00 hrs.
   
  WARNING: Pump P78 closed because cannot deliver head at 146:50:00 hrs.
   
  WARNING: Pump P78 closed because cannot deliver head at 1:56:13 hrs.
  WARNING: Pump P79 closed because cannot deliver head at 1:56:13 hrs.
   
  WARNING: Pump P78 closed because cannot deliver head at 2:00:00 hrs.
   
  WARNING: Pump P78 closed because cannot deliver head at 2:10:00 hrs.
   
  WARNING: Pump P78 closed because cannot deliver head at 2:20:00 hrs.
   
  WARNING: Pump P78 closed because cannot deliver head at 2:30:00 hrs.
   
  WARNING: Pump P78 closed because cannot deliver head at 2:40:00 hrs.
   
  WARNING: Pump P78 closed because cannot deliver head at 2:50:00 hrs.
   
  WARNING: Pump P79 closed because cannot deliver head at 1:54:24 hrs.
   
  WARNING: Pump P78 closed because cannot deliver head at 1:54:41 hrs.
  WARNING: Pump P79 closed because cannot deliver head at 1:54:41 hrs.
   
  WARNING: Pump P78 closed because cannot deliver head at 26:00:00 hrs.
   
  WARNING: Pump P78 closed because cannot deliver head at 26:10:00 hrs.
   
  WARNING: Pump P78 closed because cannot deliver head at 26:20:00 hrs.
   
  WARNING: Pump P78 closed because cannot deliver head at 26:30:00 hrs.
   
  WARNING: Pump P78 closed because cannot deliver head at 26:40:00 hrs.
   
  WARNING: Pump P78 closed because cannot deliver head at 26:50:00 hrs.
   
  WARNING: Pump P79 closed because cannot deliver head at 74:38:32 hrs.
   
  WARNING: Pump P79 closed because cannot deliver head at 74:40:00 hrs.
   
  WARNING: Pump P79 closed because cannot deliver head at 74:50:00 hrs.
   
  WARNING: Pump P79 closed because cannot deliver head at 75:00:00 hrs.
   
  WARNING: Pump P79 closed because cannot deliver head at 75:10:00 hrs.
   
  WARNING: Pump P79 closed because cannot deliver head at 75:20:00 hrs.
   
  WARNING: Pump P79 closed because cannot deliver head at 75:30:00 hrs.
   
  WARNING: Pump P79 closed because cannot deliver head at 75:40:00 hrs.
   
  WARNING: Pump P79 closed because cannot deliver head at 75:50:00 hrs.
   
  WARNING: Pump P78 closed because cannot deliver head at 98:18:26 hrs.
   
  WARNING: Pump P78 closed because cannot deliver head at 98:20:00 hrs.
   
  WARNING: Pump P78 closed because cannot deliver head at 98:30:00 hrs.
   
  WARNING: Pump P78 closed because cannot deliver head at 98:40:00 hrs.
   
  WARNING: Pump P78 closed because cannot deliver head at 98:50:00 hrs.
   
  WARNING: Pump P78 closed because cannot deliver head at 98:00:00 hrs.
   
  WARNING: Pump P78 closed because cannot deliver head at 98:10:00 hrs.
   
  WARNING: Pump P78 closed because cannot deliver head at 98:20:00 hrs.
   
  WARNING: Pump P78 closed because cannot deliver head at 98:30:00 hrs.
   
  WARNING: Pump P78 closed because cannot deliver head at 98:40:00 hrs.
   
  WARNING: Pump P78 closed because cannot deliver head at 98:50:00 hrs.
   
  WARNING: Pump P79 closed because cannot deliver head at 146:00:00 hrs.
   
  WARNING: Pump P79 closed because cannot deliver head at 146:10:00 hrs.
   
  WARNING: Pump P79 closed because cannot deliver head at 146:20:00 hrs.
   
  WARNING: Pump P79 closed because cannot deliver head at 146:30:00 hrs.
   
  WARNING: Pump P79 closed because cannot deliver head at 146:40:00 hrs.
   
  WARNING: Pump P79 closed because cannot deliver head at 146:50:00 hrs.
   
  WARNING: Pump P79 closed because cannot deliver head at 2:03:43 hrs.
   
  WARNING: Pump P79 closed because cannot deliver head at 2:10:00 hrs.
   
  WARNING: Pump P79 closed because cannot deliver head at 2:20:00 hrs.
   
  WARNING: Pump P79 closed because cannot deliver head at 2:30:00 hrs.
   
  WARNING: Pump P79 closed because cannot deliver head at 2:40:00 hrs.
   
  WARNING: Pump P79 closed because cannot deliver head at 2:50:00 hrs.
   
  WARNING: Pump P78 closed because cannot deliver head at 26:00:00 hrs.
   
  WARNING: Pump P78 closed because cannot deliver head at 26:10:00 hrs.
   
  WARNING: Pump P78 closed because cannot deliver head at 26:20:00 hrs.
   
  WARNING: Pump P78 closed because cannot deliver head at 26:30:00 hrs.
   
  WARNING: Pump P78 closed because cannot deliver head at 26:40:00 hrs.
   
  WARNING: Pump P78 closed because cannot deliver head at 26:50:00 hrs.
   
  WARNING: Pump P78 closed because cannot deliver head at 26:00:00 hrs.
  WARNING: Pump P79 closed because cannot deliver head at 26:00:00 hrs.
   
  WARNING: Pump P78 closed because cannot deliver head at 26:10:00 hrs.
  WARNING: Pump P79 closed because cannot deliver head at 26:10:00 hrs.
   
  WARNING: Pump P78 closed because cannot deliver head at 26:20:00 hrs.
  WARNING: Pump P79 closed because cannot deliver head at 26:20:00 hrs.
   
  WARNING: Pump P78 closed because cannot deliver head at 26:30:00 hrs.
  WARNING: Pump P79 closed because cannot deliver head at 26:30:00 hrs.
   
  WARNING: Pump P78 closed because cannot deliver head at 26:40:00 hrs.
  WARNING: Pump P79 closed because cannot deliver head at 26:40:00 hrs.
   
  WARNING: Pump P78 closed because cannot deliver head at 26:50:00 hrs.
  WARNING: Pump P79 closed because cannot deliver head at 26:50:00 hrs.
   
  WARNING: Pump P78 closed because cannot deliver head at 2:12:29 hrs.
   
  WARNING: Pump P78 closed because cannot deliver head at 2:20:00 hrs.
   
  WARNING: Pump P78 closed because cannot deliver head at 2:30:00 hrs.
   
  WARNING: Pump P78 closed because cannot deliver head at 2:40:00 hrs.
   
  WARNING: Pump P78 closed because cannot deliver head at 2:50:00 hrs.
   
  WARNING: Pump P78 closed because cannot deliver head at 74:00:00 hrs.
   
  WARNING: Pump P78 closed because cannot deliver head at 74:10:00 hrs.
   
  WARNING: Pump P78 closed because cannot deliver head at 74:20:00 hrs.
   
  WARNING: Pump P78 closed because cannot deliver head at 74:30:00 hrs.
   
  WARNING: Pump P78 closed because cannot deliver head at 74:40:00 hrs.
   
  WARNING: Pump P78 closed because cannot deliver head at 74:50:00 hrs.
   
  WARNING: Pump P79 closed because cannot deliver head at 70:00:00 hrs.
   
  WARNING: Pump P79 closed because cannot deliver head at 70:10:00 hrs.
   
  WARNING: Pump P79 closed because cannot deliver head at 70:20:00 hrs.
   
  WARNING: Pump P79 closed because cannot deliver head at 70:30:00 hrs.
   
  WARNING: Pump P79 closed because cannot deliver head at 70:40:00 hrs.
   
  WARNING: Pump P79 closed because cannot deliver head at 70:50:00 hrs.
   
  WARNING: Pump P78 closed because cannot deliver head at 74:45:13 hrs.
   
  WARNING: Pump P78 closed because cannot deliver head at 74:50:00 hrs.
   
  WARNING: Pump P79 closed because cannot deliver head at 27:00:00 hrs.
   
  WARNING: Pump P79 closed because cannot deliver head at 27:10:00 hrs.
   
  WARNING: Pump P79 closed because cannot deliver head at 27:20:00 hrs.
   
  WARNING: Pump P79 closed because cannot deliver head at 27:30:00 hrs.
   
  WARNING: Pump P79 closed because cannot deliver head at 27:40:00 hrs.
   
  WARNING: Pump P79 closed because cannot deliver head at 27:50:00 hrs.
   
  WARNING: Pump P78 closed because cannot deliver head at 26:05:13 hrs.
   
  WARNING: Pump P78 closed because cannot deliver head at 26:10:00 hrs.
   
  WARNING: Pump P78 closed because cannot deliver head at 26:20:00 hrs.
   
  WARNING: Pump P78 closed because cannot deliver head at 26:30:00 hrs.
   
  WARNING: Pump P78 closed because cannot deliver head at 26:40:00 hrs.
   
  WARNING: Pump P78 closed because cannot deliver head at 26:50:00 hrs.
   
  WARNING: Pump P79 closed because cannot deliver head at 26:09:24 hrs.
   
  WARNING: Pump P79 closed because cannot deliver head at 26:10:00 hrs.
   
  WARNING: Pump P79 closed because cannot deliver head at 26:20:00 hrs.
   
  WARNING: Pump P79 closed because cannot deliver head at 26:30:00 hrs.
   
  WARNING: Pump P79 closed because cannot deliver head at 26:40:00 hrs.
   
  WARNING: Pump P79 closed because cannot deliver head at 26:50:00 hrs.
   
  WARNING: Pump P79 closed because cannot deliver head at 122:02:38 hrs.
   
  WARNING: Pump P79 closed because cannot deliver head at 122:10:00 hrs.
   
  WARNING: Pump P79 closed because cannot deliver head at 122:20:00 hrs.
   
  WARNING: Pump P79 closed because cannot deliver head at 122:30:00 hrs.
   
  WARNING: Pump P79 closed because cannot deliver head at 122:40:00 hrs.
   
  WARNING: Pump P79 closed because cannot deliver head at 122:50:00 hrs.
   
  WARNING: Pump P79 closed because cannot deliver head at 146:00:00 hrs.
   
  WARNING: Pump P79 closed because cannot deliver head at 146:10:00 hrs.
   
  WARNING: Pump P79 closed because cannot deliver head at 146:20:00 hrs.
   
  WARNING: Pump P79 closed because cannot deliver head at 146:30:00 hrs.
   
  WARNING: Pump P79 closed because cannot deliver head at 146:40:00 hrs.
   
  WARNING: Pump P79 closed because cannot deliver head at 146:50:00 hrs.
   
  WARNING: Pump P79 closed because cannot deliver head at 25:06:52 hrs.
   
  WARNING: Pump P79 closed because cannot deliver head at 25:10:00 hrs.
   
  WARNING: Pump P79 closed because cannot deliver head at 25:20:00 hrs.
   
  WARNING: Pump P79 closed because cannot deliver head at 25:30:00 hrs.
   
  WARNING: Pump P79 closed because cannot deliver head at 25:40:00 hrs.
   
  WARNING: Pump P79 closed because cannot deliver head at 25:50:00 hrs.
   
  WARNING: Pump P78 closed because cannot deliver head at 26:00:00 hrs.
   
  WARNING: Pump P78 closed because cannot deliver head at 26:10:00 hrs.
   
  WARNING: Pump P78 closed because cannot deliver head at 26:20:00 hrs.
   
  WARNING: Pump P78 closed because cannot deliver head at 26:30:00 hrs.
   
  WARNING: Pump P78 closed because cannot deliver head at 26:40:00 hrs.
   
  WARNING: Pump P78 closed because cannot deliver head at 26:50:00 hrs.
   
  WARNING: Pump P78 closed because cannot deliver head at 121:00:00 hrs.
   
  WARNING: Pump P78 closed because cannot deliver head at 121:10:00 hrs.
   
  WARNING: Pump P78 closed because cannot deliver head at 121:20:00 hrs.
   
  WARNING: Pump P78 closed because cannot deliver head at 121:30:00 hrs.
   
  WARNING: Pump P78 closed because cannot deliver head at 121:40:00 hrs.
   
  WARNING: Pump P78 closed because cannot deliver head at 121:50:00 hrs.
   
  WARNING: Pump P78 closed because cannot deliver head at 50:00:00 hrs.
  WARNING: Pump P79 closed because cannot deliver head at 50:00:00 hrs.
   
  WARNING: Pump P78 closed because cannot deliver head at 50:10:00 hrs.
  WARNING: Pump P79 closed because cannot deliver head at 50:10:00 hrs.
   
  WARNING: Pump P78 closed because cannot deliver head at 50:20:00 hrs.
  WARNING: Pump P79 closed because cannot deliver head at 50:20:00 hrs.
   
  WARNING: Pump P78 closed because cannot deliver head at 50:30:00 hrs.
  WARNING: Pump P79 closed because cannot deliver head at 50:30:00 hrs.
   
  WARNING: Pump P78 closed because cannot deliver head at 50:40:00 hrs.
  WARNING: Pump P79 closed because cannot deliver head at 50:40:00 hrs.
   
  WARNING: Pump P78 closed because cannot deliver head at 50:50:00 hrs.
  WARNING: Pump P79 closed because cannot deliver head at 50:50:00 hrs.
   
  WARNING: Pump P79 closed because cannot deliver head at 75:00:00 hrs.
   
  WARNING: Pump P79 closed because cannot deliver head at 75:10:00 hrs.
   
  WARNING: Pump P79 closed because cannot deliver head at 75:20:00 hrs.
   
  WARNING: Pump P79 closed because cannot deliver head at 75:30:00 hrs.
   
  WARNING: Pump P79 closed because cannot deliver head at 75:40:00 hrs.
   
  WARNING: Pump P79 closed because cannot deliver head at 75:50:00 hrs.
   
  WARNING: Pump P79 closed because cannot deliver head at 1:51:04 hrs.
   
  WARNING: Pump P79 closed because cannot deliver head at 2:00:00 hrs.
   
  WARNING: Pump P79 closed because cannot deliver head at 2:10:00 hrs.
   
  WARNING: Pump P79 closed because cannot deliver head at 2:20:00 hrs.
   
  WARNING: Pump P79 closed because cannot deliver head at 2:30:00 hrs.
   
  WARNING: Pump P79 closed because cannot deliver head at 2:40:00 hrs.
   
  WARNING: Pump P79 closed because cannot deliver head at 2:50:00 hrs.
   
  WARNING: Pump P79 closed because cannot deliver head at 121:00:00 hrs.
   
  WARNING: Pump P79 closed because cannot deliver head at 121:10:00 hrs.
   
  WARNING: Pump P79 closed because cannot deliver head at 121:20:00 hrs.
   
  WARNING: Pump P79 closed because cannot deliver head at 121:30:00 hrs.
   
  WARNING: Pump P79 closed because cannot deliver head at 121:40:00 hrs.
   
  WARNING: Pump P79 closed because cannot deliver head at 121:50:00 hrs.
   
  WARNING: Pump P79 closed because cannot deliver head at 98:00:00 hrs.
   
  WARNING: Pump P79 closed because cannot deliver head at 98:10:00 hrs.
   
  WARNING: Pump P79 closed because cannot deliver head at 98:20:00 hrs.
   
  WARNING: Pump P79 closed because cannot deliver head at 98:30:00 hrs.
   
  WARNING: Pump P79 closed because cannot deliver head at 98:40:00 hrs.
   
  WARNING: Pump P79 closed because cannot deliver head at 98:50:00 hrs.
   
  WARNING: Pump P78 closed because cannot deliver head at 98:03:42 hrs.
   
  WARNING: Pump P78 closed because cannot deliver head at 98:10:00 hrs.
   
  WARNING: Pump P78 closed because cannot deliver head at 98:20:00 hrs.
   
  WARNING: Pump P78 closed because cannot deliver head at 98:30:00 hrs.
   
  WARNING: Pump P78 closed because cannot deliver head at 98:40:00 hrs.
   
  WARNING: Pump P78 closed because cannot deliver head at 98:50:00 hrs.
   
  WARNING: Pump P78 closed because cannot deliver head at 98:00:00 hrs.
   
  WARNING: Pump P78 closed because cannot deliver head at 98:10:00 hrs.
   
  WARNING: Pump P78 closed because cannot deliver head at 98:20:00 hrs.
   
  WARNING: Pump P78 closed because cannot deliver head at 98:30:00 hrs.
   
  WARNING: Pump P78 closed because cannot deliver head at 98:40:00 hrs.
   
  WARNING: Pump P78 closed because cannot deliver head at 98:50:00 hrs.
   
  WARNING: Pump P79 closed because cannot deliver head at 98:00:00 hrs.
   
  WARNING: Pump P79 closed because cannot deliver head at 98:10:00 hrs.
   
  WARNING: Pump P79 closed because cannot deliver head at 98:20:00 hrs.
   
  WARNING: Pump P79 closed because cannot deliver head at 98:30:00 hrs.
   
  WARNING: Pump P79 closed because cannot deliver head at 98:40:00 hrs.
   
  WARNING: Pump P79 closed because cannot deliver head at 98:50:00 hrs.
   
  WARNING: Pump P79 closed because cannot deliver head at 26:00:00 hrs.
   
  WARNING: Pump P79 closed because cannot deliver head at 26:10:00 hrs.
   
  WARNING: Pump P79 closed because cannot deliver head at 26:20:00 hrs.
   
  WARNING: Pump P79 closed because cannot deliver head at 26:30:00 hrs.
   
  WARNING: Pump P79 closed because cannot deliver head at 26:40:00 hrs.
   
  WARNING: Pump P79 closed because cannot deliver head at 26:50:00 hrs.
   
  WARNING: Pump P79 closed because cannot deliver head at 50:00:00 hrs.
   
  WARNING: Pump P79 closed because cannot deliver head at 50:10:00 hrs.
   
  WARNING: Pump P79 closed because cannot deliver head at 50:20:00 hrs.
   
  WARNING: Pump P79 closed because cannot deliver head at 50:30:00 hrs.
   
  WARNING: Pump P79 closed because cannot deliver head at 50:40:00 hrs.
   
  WARNING: Pump P79 closed because cannot deliver head at 50:50:00 hrs.
   
  WARNING: Pump P78 closed because cannot deliver head at 28:00:00 hrs.
   
  WARNING: Pump P78 closed because cannot deliver head at 28:10:00 hrs.
   
  WARNING: Pump P78 closed because cannot deliver head at 28:20:00 hrs.
   
  WARNING: Pump P78 closed because cannot deliver head at 28:30:00 hrs.
   
  WARNING: Pump P78 closed because cannot deliver head at 28:40:00 hrs.
   
  WARNING: Pump P78 closed because cannot deliver head at 28:50:00 hrs.
   
  WARNING: Pump P79 closed because cannot deliver head at 98:00:00 hrs.
   
  WARNING: Pump P79 closed because cannot deliver head at 98:10:00 hrs.
   
  WARNING: Pump P79 closed because cannot deliver head at 98:20:00 hrs.
   
  WARNING: Pump P79 closed because cannot deliver head at 98:30:00 hrs.
   
  WARNING: Pump P79 closed because cannot deliver head at 98:40:00 hrs.
   
  WARNING: Pump P79 closed because cannot deliver head at 98:50:00 hrs.
   
  WARNING: Pump P78 closed because cannot deliver head at 122:00:00 hrs.
   
  WARNING: Pump P78 closed because cannot deliver head at 122:10:00 hrs.
   
  WARNING: Pump P78 closed because cannot deliver head at 122:20:00 hrs.
   
  WARNING: Pump P78 closed because cannot deliver head at 122:30:00 hrs.
   
  WARNING: Pump P78 closed because cannot deliver head at 122:40:00 hrs.
   
  WARNING: Pump P78 closed because cannot deliver head at 122:50:00 hrs.
   
  WARNING: Pump P78 closed because cannot deliver head at 26:08:07 hrs.
   
  WARNING: Pump P78 closed because cannot deliver head at 26:10:00 hrs.
   
  WARNING: Pump P78 closed because cannot deliver head at 26:20:00 hrs.
   
  WARNING: Pump P78 closed because cannot deliver head at 26:30:00 hrs.
   
  WARNING: Pump P78 closed because cannot deliver head at 26:40:00 hrs.
   
  WARNING: Pump P78 closed because cannot deliver head at 26:50:00 hrs.
   
  WARNING: Pump P79 closed because cannot deliver head at 27:06:00 hrs.
   
  WARNING: Pump P79 closed because cannot deliver head at 27:10:00 hrs.
   
  WARNING: Pump P79 closed because cannot deliver head at 27:20:00 hrs.
   
  WARNING: Pump P79 closed because cannot deliver head at 27:30:00 hrs.
   
  WARNING: Pump P79 closed because cannot deliver head at 27:40:00 hrs.
   
  WARNING: Pump P79 closed because cannot deliver head at 27:50:00 hrs.
   